pglib_opf_case2000_tamu/dapi/pglib_opf_case2000_tamu_12regions_dapi.m
% -------------------------------------------------------------------------
% Partitioned MATPOWER Case File
% Copyright (c) 2025 Milad Hasanzadeh
% Generated on: 2026-06-14
% This file contains partitioned data for 12 regions


% -------------------- mpc_regionR1 --------------------

mpc_regionR1.version = '2';
mpc_regionR1.baseMVA = 100.0000;
mpc_regionR1.bus = [
%	bus_i       type        Pd          Qd          Gs          Bs          area        Vm          Va          baseKV      zone        Vmax        Vmin        
	 1	 1	 0	 0	 0	 0	 6	 1	 0	 500	 25	 1.1	 0.9;
	 2	 1	 96.77	 23.37	 0	 0	 6	 1	 0	 115	 25	 1.1	 0.9;
	 3	 1	 6.62	 1.6	 0	 63.25	 6	 1	 0	 115	 25	 1.1	 0.9;
	 4	 1	 3.12	 0.75	 0	 0	 6	 1	 0	 115	 25	 1.1	 0.9;
	 5	 1	 7.39	 1.79	 0	 0	 6	 1	 0	 115	 25	 1.1	 0.9;
	 6	 1	 0	 0	 0	 0	 7	 1	 0	 500	 4	 1.1	 0.9;
	 7	 1	 0	 0	 0	 0	 7	 1	 0	 230	 4	 1.1	 0.9;
	 8	 1	 260.36	 62.88	 0	 0	 7	 1	 0	 115	 4	 1.1	 0.9;
	 9	 2	 0	 0	 0	 0	 7	 1	 0	 13.8	 4	 1.1	 0.9;
	 10	 2	 0	 0	 0	 0	 7	 1	 0	 13.8	 4	 1.1	 0.9;
	 11	 2	 0	 0	 0	 0	 7	 1	 0	 13.8	 4	 1.1	 0.9;
	 12	 2	 0	 0	 0	 0	 7	 1	 0	 13.8	 4	 1.1	 0.9;
	 13	 2	 0	 0	 0	 0	 7	 1	 0	 13.8	 4	 1.1	 0.9;
	 14	 1	 18.36	 4.43	 0	 0	 7	 1	 0	 115	 5	 1.1	 0.9;
	 15	 1	 41.99	 10.14	 0	 0	 7	 1	 0	 115	 5	 1.1	 0.9;
	 16	 1	 1.1	 0.27	 0	 0	 7	 1	 0	 115	 3	 1.1	 0.9;
	 17	 1	 161.96	 39.11	 0	 0	 7	 1	 0	 115	 5	 1.1	 0.9;
	 18	 1	 61.96	 14.96	 0	 0	 7	 1	 0	 115	 4	 1.1	 0.9;
	 19	 2	 0	 0	 0	 0	 7	 1	 0	 18	 4	 1.1	 0.9;
	 20	 1	 100.38	 24.24	 0	 0	 7	 1	 0	 115	 4	 1.1	 0.9;
	 21	 1	 159.36	 38.48	 0	 0	 7	 1	 0	 115	 3	 1.1	 0.9;
	 22	 1	 50.91	 12.29	 0	 0	 7	 1	 0	 115	 4	 1.1	 0.9;
	 23	 1	 128.14	 30.95	 0	 0	 7	 1	 0	 115	 5	 1.1	 0.9;
	 24	 1	 90.35	 21.82	 0	 481.69	 7	 1	 0	 115	 3	 1.1	 0.9;
	 25	 1	 0	 0	 0	 0	 7	 1	 0	 230	 5	 1.1	 0.9;
	 26	 1	 108.3	 26.15	 0	 0	 7	 1	 0	 115	 5	 1.1	 0.9;
	 27	 1	 0	 0	 0	 0	 7	 1	 0	 500	 3	 1.1	 0.9;
	 28	 1	 0	 0	 0	 0	 7	 1	 0	 230	 3	 1.1	 0.9;
	 29	 1	 276.29	 66.73	 0	 0	 7	 1	 0	 115	 3	 1.1	 0.9;
	 30	 1	 0	 0	 0	 0	 7	 1	 0	 230	 4	 1.1	 0.9;
	 31	 1	 110.14	 26.6	 0	 0	 7	 1	 0	 115	 4	 1.1	 0.9;
	 32	 1	 0	 0	 0	 0	 7	 1	 0	 500	 3	 1.1	 0.9;
	 33	 1	 0	 0	 0	 0	 7	 1	 0	 230	 3	 1.1	 0.9;
	 34	 1	 332.19	 80.22	 0	 0	 7	 1	 0	 115	 3	 1.1	 0.9;
	 35	 1	 84.51	 20.41	 0	 0	 7	 1	 0	 115	 5	 1.1	 0.9;
	 36	 1	 165.17	 39.89	 0	 0	 7	 1	 0	 115	 3	 1.1	 0.9;
	 37	 1	 125.13	 30.22	 0	 0	 7	 1	 0	 115	 3	 1.1	 0.9;
	 38	 1	 124.31	 30.02	 0	 0	 7	 1	 0	 115	 3	 1.1	 0.9;
	 39	 1	 108.93	 26.31	 0	 0	 7	 1	 0	 115	 4	 1.1	 0.9;
	 40	 1	 115.07	 27.79	 0	 0	 7	 1	 0	 115	 3	 1.1	 0.9;
	 41	 1	 0	 0	 0	 0	 7	 1	 0	 230	 5	 1.1	 0.9;
	 42	 1	 124.49	 30.06	 0	 0	 7	 1	 0	 115	 5	 1.1	 0.9;
	 43	 1	 97.01	 23.43	 0	 0	 7	 1	 0	 115	 3	 1.1	 0.9;
	 44	 1	 0	 0	 0	 0	 7	 1	 0	 230	 1	 1.1	 0.9;
	 45	 1	 60.02	 14.5	 0	 0	 7	 1	 0	 115	 1	 1.1	 0.9;
	 46	 1	 118.53	 28.63	 0	 0	 7	 1	 0	 115	 4	 1.1	 0.9;
	 47	 1	 136.58	 32.99	 0	 0	 7	 1	 0	 115	 4	 1.1	 0.9;
	 48	 1	 0	 0	 0	 0	 7	 1	 0	 230	 2	 1.1	 0.9;
	 49	 1	 81.1	 19.59	 0	 0	 7	 1	 0	 115	 2	 1.1	 0.9;
	 50	 1	 188.72	 45.58	 0	 342.5	 7	 1	 0	 115	 4	 1.1	 0.9;
	 51	 1	 0	 0	 0	 0	 7	 1	 0	 500	 4	 1.1	 0.9;
	 52	 1	 0	 0	 0	 0	 7	 1	 0	 230	 4	 1.1	 0.9;
	 53	 1	 0	 0	 0	 0	 7	 1	 0	 115	 4	 1.1	 0.9;
	 54	 2	 0	 0	 0	 0	 7	 1	 0	 13.8	 4	 1.1	 0.9;
	 55	 2	 0	 0	 0	 0	 7	 1	 0	 13.8	 4	 1.1	 0.9;
	 56	 2	 0	 0	 0	 0	 7	 1	 0	 13.8	 4	 1.1	 0.9;
	 57	 2	 0	 0	 0	 0	 7	 1	 0	 13.8	 4	 1.1	 0.9;
	 58	 1	 0	 0	 0	 0	 7	 1	 0	 230	 4	 1.1	 0.9;
	 59	 1	 251.93	 60.84	 0	 0	 7	 1	 0	 115	 4	 1.1	 0.9;
	 60	 1	 4.81	 1.16	 0	 0	 7	 1	 0	 115	 2	 1.1	 0.9;
	 61	 1	 62.7	 15.14	 0	 0	 7	 1	 0	 115	 4	 1.1	 0.9;
	 62	 1	 87.07	 21.03	 0	 0	 7	 1	 0	 115	 3	 1.1	 0.9;
	 63	 1	 118.55	 28.63	 0	 0	 7	 1	 0	 115	 3	 1.1	 0.9;
	 64	 1	 82.21	 19.85	 0	 316.53	 7	 1	 0	 115	 3	 1.1	 0.9;
	 65	 1	 16.19	 3.91	 0	 0	 7	 1	 0	 115	 5	 1.1	 0.9;
	 66	 1	 247.17	 59.69	 0	 292.93	 7	 1	 0	 115	 3	 1.1	 0.9;
	 67	 1	 46.02	 11.11	 0	 0	 7	 1	 0	 115	 3	 1.1	 0.9;
	 68	 1	 128.05	 30.93	 0	 0	 7	 1	 0	 115	 3	 1.1	 0.9;
	 69	 1	 89.97	 21.73	 0	 0	 7	 1	 0	 115	 3	 1.1	 0.9;
	 70	 1	 72.93	 17.61	 0	 0	 7	 1	 0	 115	 4	 1.1	 0.9;
	 71	 1	 249.32	 60.21	 0	 0	 7	 1	 0	 115	 3	 1.1	 0.9;
	 72	 1	 138.5	 33.45	 0	 0	 7	 1	 0	 115	 5	 1.1	 0.9;
	 73	 1	 68.8	 16.61	 0	 0	 7	 1	 0	 115	 4	 1.1	 0.9;
	 74	 1	 0	 0	 0	 0	 7	 1	 0	 500	 4	 1.1	 0.9;
	 75	 1	 0	 0	 0	 0	 7	 1	 0	 230	 4	 1.1	 0.9;
	 76	 1	 108.02	 26.09	 0	 0	 7	 1	 0	 115	 4	 1.1	 0.9;
	 77	 2	 0	 0	 0	 0	 7	 1	 0	 24	 4	 1.1	 0.9;
	 78	 2	 0	 0	 0	 0	 7	 1	 0	 24	 4	 1.1	 0.9;
	 79	 2	 0	 0	 0	 0	 7	 1	 0	 24	 4	 1.1	 0.9;
	 80	 2	 0	 0	 0	 0	 7	 1	 0	 24	 4	 1.1	 0.9;
	 81	 2	 0	 0	 0	 0	 7	 1	 0	 24	 4	 1.1	 0.9;
	 82	 2	 0	 0	 0	 0	 7	 1	 0	 24	 4	 1.1	 0.9;
	 83	 2	 0	 0	 0	 0	 7	 1	 0	 24	 4	 1.1	 0.9;
	 84	 2	 0	 0	 0	 0	 7	 1	 0	 24	 4	 1.1	 0.9;
	 85	 2	 0	 0	 0	 0	 7	 1	 0	 24	 4	 1.1	 0.9;
	 86	 1	 14.27	 3.45	 0	 0	 7	 1	 0	 115	 1	 1.1	 0.9;
	 87	 1	 98.58	 23.81	 0	 0	 7	 1	 0	 115	 3	 1.1	 0.9;
	 88	 1	 142.13	 34.33	 0	 0	 7	 1	 0	 115	 5	 1.1	 0.9;
	 89	 1	 58.31	 14.08	 0	 0	 7	 1	 0	 115	 4	 1.1	 0.9;
	 90	 1	 175.63	 42.41	 0	 0	 7	 1	 0	 115	 3	 1.1	 0.9;
	 91	 2	 0	 0	 0	 0	 7	 1	 0	 18	 3	 1.1	 0.9;
	 92	 2	 0	 0	 0	 0	 7	 1	 0	 18	 3	 1.1	 0.9;
	 93	 1	 193.18	 46.65	 0	 0	 7	 1	 0	 115	 3	 1.1	 0.9;
	 94	 1	 0	 0	 0	 0	 7	 1	 0	 500	 3	 1.1	 0.9;
	 95	 1	 0	 0	 0	 0	 7	 1	 0	 230	 3	 1.1	 0.9;
	 96	 1	 262.26	 63.34	 0	 0	 7	 1	 0	 115	 3	 1.1	 0.9;
	 97	 1	 75.01	 18.12	 0	 0	 7	 1	 0	 115	 5	 1.1	 0.9;
	 98	 1	 0	 0	 0	 0	 7	 1	 0	 500	 4	 1.1	 0.9;
	 99	 1	 0	 0	 0	 0	 7	 1	 0	 230	 4	 1.1	 0.9;
	 100	 1	 85.35	 20.61	 0	 0	 7	 1	 0	 115	 4	 1.1	 0.9;
	 101	 2	 0	 0	 0	 0	 7	 1	 0	 13.8	 4	 1.1	 0.9;
	 102	 2	 0	 0	 0	 0	 7	 1	 0	 13.8	 4	 1.1	 0.9;
	 103	 2	 0	 0	 0	 0	 7	 1	 0	 13.8	 4	 1.1	 0.9;
	 104	 2	 0	 0	 0	 0	 7	 1	 0	 13.8	 4	 1.1	 0.9;
	 105	 2	 0	 0	 0	 0	 7	 1	 0	 13.8	 4	 1.1	 0.9;
	 106	 2	 0	 0	 0	 0	 7	 1	 0	 13.8	 4	 1.1	 0.9;
	 107	 2	 0	 0	 0	 0	 7	 1	 0	 13.8	 4	 1.1	 0.9;
	 108	 2	 0	 0	 0	 0	 7	 1	 0	 13.8	 4	 1.1	 0.9;
	 109	 2	 0	 0	 0	 0	 7	 1	 0	 13.8	 4	 1.1	 0.9;
	 110	 2	 0	 0	 0	 0	 7	 1	 0	 13.8	 4	 1.1	 0.9;
	 111	 1	 70.34	 16.99	 0	 0	 7	 1	 0	 115	 5	 1.1	 0.9;
	 112	 1	 114.6	 27.68	 0	 0	 7	 1	 0	 115	 4	 1.1	 0.9;
	 113	 1	 168.68	 40.74	 0	 288.02	 7	 1	 0	 115	 4	 1.1	 0.9;
	 114	 2	 0	 0	 0	 0	 7	 1	 0	 13.8	 4	 1.1	 0.9;
	 115	 1	 55.48	 13.4	 0	 0	 7	 1	 0	 115	 3	 1.1	 0.9;
	 116	 1	 69.76	 16.85	 0	 0	 7	 1	 0	 115	 3	 1.1	 0.9;
	 117	 1	 0	 0	 0	 125.49	 7	 1	 0	 230	 5	 1.1	 0.9;
	 118	 1	 51.68	 12.48	 0	 0	 7	 1	 0	 115	 5	 1.1	 0.9;
	 119	 1	 4.21	 1.02	 0	 0	 7	 1	 0	 115	 3	 1.1	 0.9;
	 120	 1	 68.75	 16.6	 0	 0	 7	 1	 0	 115	 5	 1.1	 0.9;
	 121	 1	 91.99	 22.22	 0	 0	 7	 1	 0	 115	 3	 1.1	 0.9;
	 122	 1	 0	 0	 0	 0	 7	 1	 0	 230	 5	 1.1	 0.9;
	 123	 1	 192.2	 46.42	 0	 0	 7	 1	 0	 115	 5	 1.1	 0.9;
	 124	 1	 91.94	 22.2	 0	 0	 7	 1	 0	 115	 4	 1.1	 0.9;
	 125	 1	 0	 0	 0	 0	 7	 1	 0	 500	 3	 1.1	 0.9;
	 126	 1	 0	 0	 0	 0	 7	 1	 0	 230	 3	 1.1	 0.9;
	 127	 1	 161.36	 38.97	 0	 0	 7	 1	 0	 115	 3	 1.1	 0.9;
	 128	 2	 0	 0	 0	 0	 7	 1	 0	 18	 3	 1.1	 0.9;
	 129	 2	 0	 0	 0	 0	 7	 1	 0	 18	 3	 1.1	 0.9;
	 130	 2	 0	 0	 0	 0	 7	 1	 0	 18	 3	 1.1	 0.9;
	 131	 2	 0	 0	 0	 0	 7	 1	 0	 18	 3	 1.1	 0.9;
	 132	 2	 0	 0	 0	 0	 7	 1	 0	 18	 3	 1.1	 0.9;
	 133	 2	 0	 0	 0	 0	 7	 1	 0	 18	 3	 1.1	 0.9;
	 134	 2	 0	 0	 0	 0	 7	 1	 0	 18	 3	 1.1	 0.9;
	 135	 2	 0	 0	 0	 0	 7	 1	 0	 18	 3	 1.1	 0.9;
	 136	 2	 0	 0	 0	 0	 7	 1	 0	 18	 3	 1.1	 0.9;
	 137	 1	 0	 0	 0	 0	 7	 1	 0	 230	 2	 1.1	 0.9;
	 138	 1	 106.9	 25.82	 0	 0	 7	 1	 0	 115	 2	 1.1	 0.9;
	 139	 1	 132.03	 31.89	 0	 0	 7	 1	 0	 115	 4	 1.1	 0.9;
	 140	 1	 146.26	 35.32	 0	 0	 7	 1	 0	 115	 4	 1.1	 0.9;
	 141	 1	 0	 0	 0	 0	 7	 1	 0	 500	 5	 1.1	 0.9;
	 142	 1	 0	 0	 0	 0	 7	 1	 0	 230	 5	 1.1	 0.9;
	 143	 1	 248.28	 59.96	 0	 0	 7	 1	 0	 115	 5	 1.1	 0.9;
	 144	 1	 143.7	 34.71	 0	 0	 7	 1	 0	 115	 3	 1.1	 0.9;
	 145	 1	 68.39	 16.52	 0	 0	 7	 1	 0	 115	 3	 1.1	 0.9;
	 146	 1	 107.29	 25.91	 0	 0	 7	 1	 0	 115	 3	 1.1	 0.9;
	 147	 1	 174.78	 42.21	 0	 0	 7	 1	 0	 115	 3	 1.1	 0.9;
	 148	 1	 2.43	 0.59	 0	 0	 7	 1	 0	 115	 3	 1.1	 0.9;
	 149	 1	 253.3	 61.17	 0	 402	 7	 1	 0	 115	 3	 1.1	 0.9;
	 150	 1	 0	 0	 0	 0	 7	 1	 0	 230	 3	 1.1	 0.9;
	 151	 1	 198.19	 47.86	 0	 0	 7	 1	 0	 115	 3	 1.1	 0.9;
	 152	 1	 0	 0	 0	 0	 7	 1	 0	 500	 3	 1.1	 0.9;
	 153	 1	 0	 0	 0	 0	 7	 1	 0	 230	 3	 1.1	 0.9;
	 154	 1	 89.84	 21.7	 0	 0	 7	 1	 0	 115	 3	 1.1	 0.9;
	 155	 2	 0	 0	 0	 0	 7	 1	 0	 13.8	 3	 1.1	 0.9;
	 156	 2	 0	 0	 0	 0	 7	 1	 0	 13.8	 3	 1.1	 0.9;
	 157	 2	 0	 0	 0	 0	 7	 1	 0	 13.8	 3	 1.1	 0.9;
	 158	 2	 0	 0	 0	 0	 7	 1	 0	 13.8	 3	 1.1	 0.9;
	 159	 2	 0	 0	 0	 0	 7	 1	 0	 13.8	 3	 1.1	 0.9;
	 160	 2	 0	 0	 0	 0	 7	 1	 0	 13.8	 3	 1.1	 0.9;
	 161	 2	 0	 0	 0	 0	 7	 1	 0	 13.8	 3	 1.1	 0.9;
	 162	 2	 0	 0	 0	 0	 7	 1	 0	 13.8	 3	 1.1	 0.9;
	 163	 2	 0	 0	 0	 0	 7	 1	 0	 13.8	 3	 1.1	 0.9;
	 164	 1	 101.04	 24.4	 0	 206.64	 7	 1	 0	 115	 5	 1.1	 0.9;
	 165	 1	 0	 0	 0	 0	 7	 1	 0	 500	 5	 1.1	 0.9;
	 166	 1	 0	 0	 0	 0	 7	 1	 0	 230	 5	 1.1	 0.9;
	 167	 1	 254.34	 61.42	 0	 0	 7	 1	 0	 115	 5	 1.1	 0.9;
	 168	 1	 42.15	 10.18	 0	 0	 7	 1	 0	 115	 5	 1.1	 0.9;
	 169	 1	 24.11	 5.82	 0	 0	 7	 1	 0	 115	 1	 1.1	 0.9;
	 170	 1	 0	 0	 0	 0	 7	 1	 0	 500	 4	 1.1	 0.9;
	 171	 1	 0	 0	 0	 0	 7	 1	 0	 230	 4	 1.1	 0.9;
	 172	 1	 0	 0	 0	 0	 7	 1	 0	 115	 4	 1.1	 0.9;
	 173	 2	 0	 0	 0	 0	 7	 1	 0	 18	 4	 1.1	 0.9;
	 174	 2	 0	 0	 0	 0	 7	 1	 0	 18	 4	 1.1	 0.9;
	 175	 2	 0	 0	 0	 0	 7	 1	 0	 18	 4	 1.1	 0.9;
	 176	 2	 0	 0	 0	 0	 7	 1	 0	 18	 4	 1.1	 0.9;
	 177	 2	 0	 0	 0	 0	 7	 1	 0	 18	 4	 1.1	 0.9;
	 178	 2	 0	 0	 0	 0	 7	 1	 0	 18	 4	 1.1	 0.9;
	 179	 1	 80.36	 19.41	 0	 0	 7	 1	 0	 115	 2	 1.1	 0.9;
	 180	 1	 98.42	 23.77	 0	 0	 7	 1	 0	 115	 3	 1.1	 0.9;
	 181	 1	 123.04	 29.72	 0	 0	 7	 1	 0	 115	 5	 1.1	 0.9;
	 182	 1	 108.59	 26.23	 0	 0	 7	 1	 0	 115	 3	 1.1	 0.9;
	 183	 1	 89.62	 21.64	 0	 0	 7	 1	 0	 115	 4	 1.1	 0.9;
	 184	 1	 56.44	 13.63	 0	 0	 7	 1	 0	 115	 5	 1.1	 0.9;
	 185	 1	 1.47	 0.36	 0	 0	 7	 1	 0	 115	 1	 1.1	 0.9;
	 186	 1	 165.74	 40.03	 0	 0	 7	 1	 0	 115	 3	 1.1	 0.9;
	 187	 1	 198.95	 48.05	 0	 0	 7	 1	 0	 115	 3	 1.1	 0.9;
	 188	 1	 102.06	 24.65	 0	 0	 7	 1	 0	 115	 3	 1.1	 0.9;
	 189	 1	 58.21	 14.06	 0	 0	 7	 1	 0	 115	 5	 1.1	 0.9;
	 190	 1	 36.1	 8.72	 0	 0	 7	 1	 0	 115	 3	 1.1	 0.9;
	 191	 1	 130.74	 31.57	 0	 0	 7	 1	 0	 115	 3	 1.1	 0.9;
	 192	 1	 53.09	 12.82	 0	 0	 7	 1	 0	 115	 3	 1.1	 0.9;
	 193	 1	 0	 0	 0	 0	 7	 1	 0	 500	 3	 1.1	 0.9;
	 194	 1	 0	 0	 0	 0	 7	 1	 0	 230	 3	 1.1	 0.9;
	 195	 1	 334.84	 80.87	 0	 0	 7	 1	 0	 115	 3	 1.1	 0.9;
	 196	 1	 8.65	 2.09	 0	 0	 7	 1	 0	 115	 1	 1.1	 0.9;
	 197	 1	 59.66	 14.41	 0	 0	 7	 1	 0	 115	 4	 1.1	 0.9;
	 198	 1	 50.35	 12.16	 0	 0	 7	 1	 0	 115	 2	 1.1	 0.9;
	 199	 1	 38.95	 9.41	 0	 0	 7	 1	 0	 115	 5	 1.1	 0.9;
	 200	 1	 90.7	 21.9	 0	 0	 7	 1	 0	 115	 5	 1.1	 0.9;
...
];

mpc_regionR1.gen = [
%	bus         Pg          Qg          Qmax        Qmin        Vg          mBase       status      Pmax        Pmin        Pc1         Pc2         Qc1min      Qc1max      Qc2min      Qc2max      ramp_agc    ramp_10     ramp_30     ramp_q      apf         
	 9	 75.725	-6.515	 82.97	-96	 1	 195.6	 1	 127	 24.45	 0	 0	 0	 0	 0	 0	 0	 0	 0	 0	 163;
	 10	 81.225	 0	 169.2	-169.2	 1	 195.6	 1	 138	 24.45	 0	 0	 0	 0	 0	 0	 0	 0	 0	 0	 163;
	 11	 127.225	 0	 115	-115	 1	 195.6	 1	 230	 24.45	 0	 0	 0	 0	 0	 0	 0	 0	 0	 0	 163;
	 12	 96.725	 0	 105.6	-105.6	 1	 195.6	 1	 169	 24.45	 0	 0	 0	 0	 0	 0	 0	 0	 0	 0	 163;
	 13	 75.725	-5.915	 82.97	-94.8	 1	 195.6	 1	 127	 24.45	 0	 0	 0	 0	 0	 0	 0	 0	 0	 0	 163;
	 19	 0	 0	 164	-164	 1	 4.8	 0	 328	 0.6	 0	 0	 0	 0	 0	 0	 0	 0	 0	 0	 4;
	 54	 267.1475	 0	 250	-250	 1	 274.38	 1	 500	 34.295	 0	 0	 0	 0	 0	 0	 0	 0	 0	 0	 228.65;
	 55	 174.6475	 0	 158	-158	 1	 274.38	 1	 315	 34.295	 0	 0	 0	 0	 0	 0	 0	 0	 0	 0	 228.65;
	 56	 267.1475	 0	 250	-250	 1	 274.38	 1	 500	 34.295	 0	 0	 0	 0	 0	 0	 0	 0	 0	 0	 228.65;
	 57	 277.6475	 0	 261	-261	 1	 274.38	 1	 521	 34.295	 0	 0	 0	 0	 0	 0	 0	 0	 0	 0	 228.65;
	 77	 46.75	 0	 172.8	-172.8	 1	 180	 1	 71	 22.5	 0	 0	 0	 0	 0	 0	 0	 0	 0	 0	 150;
	 78	 23.325	 0	 38.4	-38.4	 1	 61.2	 1	 39	 7.65	 0	 0	 0	 0	 0	 0	 0	 0	 0	 0	 51;
	 79	 27.325	 0	 46.8	-46.8	 1	 61.2	 1	 47	 7.65	 0	 0	 0	 0	 0	 0	 0	 0	 0	 0	 51;
	 80	 104.2	 3.68	 99.76	-92.4	 1	 235.2	 1	 179	 29.4	 0	 0	 0	 0	 0	 0	 0	 0	 0	 0	 196;
	 81	 59.2	 4.88	 99.76	-90	 1	 235.2	 1	 89	 29.4	 0	 0	 0	 0	 0	 0	 0	 0	 0	 0	 196;
	 82	 78.7	 0	 148.8	-148.8	 1	 235.2	 1	 128	 29.4	 0	 0	 0	 0	 0	 0	 0	 0	 0	 0	 196;
	 83	 74.2	 11.48	 99.76	-76.8	 1	 235.2	 1	 119	 29.4	 0	 0	 0	 0	 0	 0	 0	 0	 0	 0	 196;
	 84	 54.2	 0	 159.6	-159.6	 1	 235.2	 1	 79	 29.4	 0	 0	 0	 0	 0	 0	 0	 0	 0	 0	 196;
	 85	 112.2	 0	 159.6	-159.6	 1	 235.2	 1	 195	 29.4	 0	 0	 0	 0	 0	 0	 0	 0	 0	 0	 196;
	 91	 0	 0	 10	-10	 1	 4.44	 0	 20	 0.555	 0	 0	 0	 0	 0	 0	 0	 0	 0	 0	 3.7;
	 92	 0	 0	 29	-29	 1	 5.16	 0	 57	 0.645	 0	 0	 0	 0	 0	 0	 0	 0	 0	 0	 4.3;
	 101	 5.7225	 0	 27.6	-27.6	 1	 19.56	 1	 9	 2.445	 0	 0	 0	 0	 0	 0	 0	 0	 0	 0	 16.3;
	 102	 47.4925	-3.235	 105.13	-111.6	 1	 247.86	 1	 64	 30.985	 0	 0	 0	 0	 0	 0	 0	 0	 0	 0	 206.55;
	 103	 55.4925	 8.165	 105.13	-88.8	 1	 247.86	 1	 80	 30.985	 0	 0	 0	 0	 0	 0	 0	 0	 0	 0	 206.55;
	 104	 79.4925	 12.365	 105.13	-80.4	 1	 247.86	 1	 128	 30.985	 0	 0	 0	 0	 0	 0	 0	 0	 0	 0	 206.55;
	 105	 152.4925	 0	 137	-137	 1	 247.86	 1	 274	 30.985	 0	 0	 0	 0	 0	 0	 0	 0	 0	 0	 206.55;
	 106	 195.5525	-11.11	 193.78	-216	 1	 456.84	 1	 334	 57.105	 0	 0	 0	 0	 0	 0	 0	 0	 0	 0	 380.7;
	 107	 35.425	-0.1	 31	-31.2	 1	 70.8	 1	 62	 8.85	 0	 0	 0	 0	 0	 0	 0	 0	 0	 0	 59;
	 108	 37.425	 0	 37.2	-37.2	 1	 70.8	 1	 66	 8.85	 0	 0	 0	 0	 0	 0	 0	 0	 0	 0	 59;
	 109	 46.925	 0	 57.6	-57.6	 1	 70.8	 1	 85	 8.85	 0	 0	 0	 0	 0	 0	 0	 0	 0	 0	 59;
	 110	 46.925	 0	 43.2	-43.2	 1	 70.8	 1	 85	 8.85	 0	 0	 0	 0	 0	 0	 0	 0	 0	 0	 59;
	 114	 14.765	 0	 14	-14	 1	 12.24	 1	 28	 1.53	 0	 0	 0	 0	 0	 0	 0	 0	 0	 0	 10.2;
	 128	 48.795	 0	 352.8	-352.8	 1	 132.72	 1	 81	 16.59	 0	 0	 0	 0	 0	 0	 0	 0	 0	 0	 110.6;
	 129	 91.295	 0	 512.4	-512.4	 1	 132.72	 1	 166	 16.59	 0	 0	 0	 0	 0	 0	 0	 0	 0	 0	 110.6;
	 130	 54.795	 0	 280.8	-280.8	 1	 132.72	 1	 93	 16.59	 0	 0	 0	 0	 0	 0	 0	 0	 0	 0	 110.6;
	 131	 56.295	 0	 328.8	-328.8	 1	 132.72	 1	 96	 16.59	 0	 0	 0	 0	 0	 0	 0	 0	 0	 0	 110.6;
	 132	 48.295	 0	 513.6	-513.6	 1	 132.72	 1	 80	 16.59	 0	 0	 0	 0	 0	 0	 0	 0	 0	 0	 110.6;
	 133	 46.8	 0	 453.6	-453.6	 1	 132.72	 1	 77	 16.6	 0	 0	 0	 0	 0	 0	 0	 0	 0	 0	 110.6;
	 134	 51.58	 0	 210	-210	 1	 105.26	 1	 90	 13.16	 0	 0	 0	 0	 0	 0	 0	 0	 0	 0	 87.72;
	 135	 41.075	 0	 108	-108	 1	 105.26	 1	 69	 13.15	 0	 0	 0	 0	 0	 0	 0	 0	 0	 0	 87.72;
	 136	 82.815	 0	 476.4	-476.4	 1	 421.04	 1	 113	 52.63	 0	 0	 0	 0	 0	 0	 0	 0	 0	 0	 350.87;
	 155	 115.0175	 0	 115	-115	 1	 8.28	 1	 229	 1.035	 0	 0	 0	 0	 0	 0	 0	 0	 0	 0	 6.9;
	 156	 78.1	 0	 75	-75	 1	 57.6	 1	 149	 7.2	 0	 0	 0	 0	 0	 0	 0	 0	 0	 0	 48;
	 157	 0	 0	 138	-138	 1	 6	 0	 276	 0.75	 0	 0	 0	 0	 0	 0	 0	 0	 0	 0	 5;
	 158	 73.125	 0	 90	-90	 1	 42	 1	 141	 5.25	 0	 0	 0	 0	 0	 0	 0	 0	 0	 0	 35;
	 159	 144.0625	 0	 144	-144	 1	 9	 1	 287	 1.125	 0	 0	 0	 0	 0	 0	 0	 0	 0	 0	 7.5;
	 160	 269.82	 0	 253	-253	 1	 277.14	 1	 505	 34.64	 0	 0	 0	 0	 0	 0	 0	 0	 0	 0	 230.95;
	 161	 464.32	 0	 447	-447	 1	 277.14	 1	 894	 34.64	 0	 0	 0	 0	 0	 0	 0	 0	 0	 0	 230.95;
	 162	 280.82	 0	 348	-348	 1	 277.14	 1	 527	 34.64	 0	 0	 0	 0	 0	 0	 0	 0	 0	 0	 230.95;
	 163	 371.82	 0	 538.8	-538.8	 1	 277.14	 1	 709	 34.64	 0	 0	 0	 0	 0	 0	 0	 0	 0	 0	 230.95;
	 173	 0	 0	 16	-16	 1	 4.8	 0	 31	 0.6	 0	 0	 0	 0	 0	 0	 0	 0	 0	 0	 4;
	 174	 288.375	 54.895	 389.39	-279.6	 1	 918	 1	 462	 114.75	 0	 0	 0	 0	 0	 0	 0	 0	 0	 0	 765;
	 175	 235.875	-8.105	 389.39	-405.6	 1	 918	 1	 357	 114.75	 0	 0	 0	 0	 0	 0	 0	 0	 0	 0	 765;
	 176	 61.8875	 0	 117.6	-117.6	 1	 214.2	 1	 97	 26.775	 0	 0	 0	 0	 0	 0	 0	 0	 0	 0	 178.5;
	 177	 48.8875	 0	 164.4	-164.4	 1	 214.2	 1	 71	 26.775	 0	 0	 0	 0	 0	 0	 0	 0	 0	 0	 178.5;
	 178	 86.3875	-4.97	 90.86	-100.8	 1	 214.2	 1	 146	 26.775	 0	 0	 0	 0	 0	 0	 0	 0	 0	 0	 178.5;
	 232	 562.345	 0	 540	-540	 1	 365.52	 1	 1079	 45.69	 0	 0	 0	 0	 0	 0	 0	 0	 0	 0	 304.6;
	 233	 252.7975	 0	 246	-246	 1	 108.77	 1	 492	 13.595	 0	 0	 0	 0	 0	 0	 0	 0	 0	 0	 90.64;
	 234	 260.7975	 0	 254	-254	 1	 108.77	 1	 508	 13.595	 0	 0	 0	 0	 0	 0	 0	 0	 0	 0	 90.64;
	 235	 251.2975	 0	 245	-245	 1	 108.77	 1	 489	 13.595	 0	 0	 0	 0	 0	 0	 0	 0	 0	 0	 90.64;
	 236	 399.595	 0	 386	-386	 1	 217.54	 1	 772	 27.19	 0	 0	 0	 0	 0	 0	 0	 0	 0	 0	 181.28;
	 243	 0	 0	 41	-41	 1	 30.84	 0	 82	 3.855	 0	 0	 0	 0	 0	 0	 0	 0	 0	 0	 25.7;
	 244	 0	 0	 12	-12	 1	 18	 0	 23	 2.25	 0	 0	 0	 0	 0	 0	 0	 0	 0	 0	 15;
	 247	 0	 0	 127	-127	 1	 9	 0	 253	 1.125	 0	 0	 0	 0	 0	 0	 0	 0	 0	 0	 7.5;
	 248	 32.805	 0	 45.6	-45.6	 1	 33.96	 1	 55	 10.61	 0	 0	 0	 0	 0	 0	 0	 0	 0	 0	 28.3;
	 249	 29.805	 0	 25	-25	 1	 33.96	 1	 49	 10.61	 0	 0	 0	 0	 0	 0	 0	 0	 0	 0	 28.3;
	 250	 35.805	 0	 31	-31	 1	 33.96	 1	 61	 10.61	 0	 0	 0	 0	 0	 0	 0	 0	 0	 0	 28.3;
	 251	 43.805	 0	 39	-39	 1	 33.96	 1	 77	 10.61	 0	 0	 0	 0	 0	 0	 0	 0	 0	 0	 28.3;
	 252	 40.6125	 0	 57.6	-57.6	 1	 67.92	 1	 60	 21.225	 0	 0	 0	 0	 0	 0	 0	 0	 0	 0	 56.6;
	 269	 52.75	 0	 368.4	-368.4	 1	 116.02	 1	 91	 14.5	 0	 0	 0	 0	 0	 0	 0	 0	 0	 0	 96.68;
	 270	 47.25	 0	 386.4	-386.4	 1	 116.02	 1	 80	 14.5	 0	 0	 0	 0	 0	 0	 0	 0	 0	 0	 96.68;
	 271	 0	 0	 87	-87	 1	 116.02	 0	 173	 14.5	 0	 0	 0	 0	 0	 0	 0	 0	 0	 0	 96.68;
	 272	 52.75	 0	 210	-210	 1	 116.02	 1	 91	 14.5	 0	 0	 0	 0	 0	 0	 0	 0	 0	 0	 96.68;
	 273	 67.5025	 0	 680.4	-680.4	 1	 232.04	 1	 106	 29.005	 0	 0	 0	 0	 0	 0	 0	 0	 0	 0	 193.37;
	 285	 34.335	 0	 398.4	-398.4	 1	 149.37	 1	 50	 18.67	 0	 0	 0	 0	 0	 0	 0	 0	 0	 0	 124.47;
	 286	 40.335	 0	 294	-294	 1	 149.37	 1	 62	 18.67	 0	 0	 0	 0	 0	 0	 0	 0	 0	 0	 124.47;
	 287	 78.335	 0	 292.8	-292.8	 1	 149.37	 1	 138	 18.67	 0	 0	 0	 0	 0	 0	 0	 0	 0	 0	 124.47;
	 288	 73.835	 0	 601.2	-601.2	 1	 149.37	 1	 129	 18.67	 0	 0	 0	 0	 0	 0	 0	 0	 0	 0	 124.47;
	 291	 31.6425	 0	 157.2	-157.2	 1	 122.28	 1	 48	 15.285	 0	 0	 0	 0	 0	 0	 0	 0	 0	 0	 101.9;
	 296	 0	 0	 38	-38	 1	 5.64	 0	 75	 0.705	 0	 0	 0	 0	 0	 0	 0	 0	 0	 0	 4.7;
	 297	 242.5125	 0	 1188	-1188	 1	 544.2	 1	 417	 68.025	 0	 0	 0	 0	 0	 0	 0	 0	 0	 0	 453.5;
	 310	 340.0375	 0	 368.4	-368.4	 1	 376.59	 1	 633	 47.075	 0	 0	 0	 0	 0	 0	 0	 0	 0	 0	 313.83;
	 311	 200.5375	 0	 177	-177	 1	 376.59	 1	 354	 47.075	 0	 0	 0	 0	 0	 0	 0	 0	 0	 0	 313.83;
	 312	 171.5375	 5.87	 159.74	-148	 1	 376.59	 1	 296	 47.075	 0	 0	 0	 0	 0	 0	 0	 0	 0	 0	 313.83;
	 313	 126.0375	 18.07	 159.74	-123.6	 1	 376.59	 1	 205	 47.075	 0	 0	 0	 0	 0	 0	 0	 0	 0	 0	 313.83;
	 314	 323.815	 37.63	 348.26	-273	 1	 821.04	 1	 545	 102.63	 0	 0	 0	 0	 0	 0	 0	 0	 0	 0	 684.2;
	 315	 396.815	 1.13	 348.26	-346	 1	 821.04	 1	 691	 102.63	 0	 0	 0	 0	 0	 0	 0	 0	 0	 0	 684.2;
	 316	 417.315	 0	 366	-366	 1	 821.04	 1	 732	 102.63	 0	 0	 0	 0	 0	 0	 0	 0	 0	 0	 684.2;
	 317	 431.75	 0	 381	-381	 1	 821.04	 1	 761	 102.5	 0	 0	 0	 0	 0	 0	 0	 0	 0	 0	 684.2;
	 318	 62.2225	 0	 61	-61	 1	 19.56	 1	 122	 2.445	 0	 0	 0	 0	 0	 0	 0	 0	 0	 0	 16.3;
	 319	 152.89	 0	 136	-136	 1	 270.24	 1	 272	 33.78	 0	 0	 0	 0	 0	 0	 0	 0	 0	 0	 225.2;
	 320	 438.39	 0	 422	-422	 1	 270.24	 1	 843	 33.78	 0	 0	 0	 0	 0	 0	 0	 0	 0	 0	 225.2;
	 321	 132.39	 0	 138	-138	 1	 270.24	 1	 231	 33.78	 0	 0	 0	 0	 0	 0	 0	 0	 0	 0	 225.2;
	 322	 131.2025	 0	 124	-124	 1	 123.24	 1	 247	 15.405	 0	 0	 0	 0	 0	 0	 0	 0	 0	 0	 102.7;
	 330	 199.545	 0	 192	-192	 1	 128.72	 1	 383	 16.09	 0	 0	 0	 0	 0	 0	 0	 0	 0	 0	 107.27;
	 331	 107.045	 0	 102	-102	 1	 128.72	 1	 198	 16.09	 0	 0	 0	 0	 0	 0	 0	 0	 0	 0	 107.27;
	 332	 102.045	 0	 123.6	-123.6	 1	 128.72	 1	 188	 16.09	 0	 0	 0	 0	 0	 0	 0	 0	 0	 0	 107.27;
	 333	 115.045	 0	 133.2	-133.2	 1	 128.72	 1	 214	 16.09	 0	 0	 0	 0	 0	 0	 0	 0	 0	 0	 107.27;
	 334	 235.045	 0	 355.2	-355.2	 1	 128.72	 1	 454	 16.09	 0	 0	 0	 0	 0	 0	 0	 0	 0	 0	 107.27;
	 335	 227.545	 0	 220	-220	 1	 128.72	 1	 439	 16.09	 0	 0	 0	 0	 0	 0	 0	 0	 0	 0	 107.27;
	 336	 131.775	 0	 154.8	-154.8	 1	 220.39	 1	 236	 27.55	 0	 0	 0	 0	 0	 0	 0	 0	 0	 0	 183.66;
	 337	 141.775	 0	 169.2	-169.2	 1	 220.39	 1	 256	 27.55	 0	 0	 0	 0	 0	 0	 0	 0	 0	 0	 183.66;
	 338	 191.775	 0	 220.8	-220.8	 1	 220.39	 1	 356	 27.55	 0	 0	 0	 0	 0	 0	 0	 0	 0	 0	 183.66;
	 339	 146.775	 0	 176.4	-176.4	 1	 220.39	 1	 266	 27.55	 0	 0	 0	 0	 0	 0	 0	 0	 0	 0	 183.66;
	 340	 186.275	 0	 192	-192	 1	 220.39	 1	 345	 27.55	 0	 0	 0	 0	 0	 0	 0	 0	 0	 0	 183.66;
	 350	 1076.21	 0	 1116	-1116	 1	 651.36	 1	 2071	 81.42	 0	 0	 0	 0	 0	 0	 0	 0	 0	 0	 542.8;
	 361	 18.4	 0	 357.6	-357.6	 1	 86.4	 1	 26	 10.8	 0	 0	 0	 0	 0	 0	 0	 0	 0	 0	 72;
	 361	 42.4	 0	 357.6	-357.6	 1	 86.4	 1	 74	 10.8	 0	 0	 0	 0	 0	 0	 0	 0	 0	 0	 72;
	 361	 35.4	 0	 357.6	-357.6	 1	 86.4	 1	 60	 10.8	 0	 0	 0	 0	 0	 0	 0	 0	 0	 0	 72;
	 361	 46.4	 0	 357.6	-357.6	 1	 86.4	 1	 82	 10.8	 0	 0	 0	 0	 0	 0	 0	 0	 0	 0	 72;
	 361	 75.3	 0	 357.6	-357.6	 1	 172.8	 1	 129	 21.6	 0	 0	 0	 0	 0	 0	 0	 0	 0	 0	 144;
	 361	 347.98	 0	 357.6	-357.6	 1	 535.68	 1	 629	 66.96	 0	 0	 0	 0	 0	 0	 0	 0	 0	 0	 446.4;
	 374	 245.115	 0	 239	-239	 1	 105.84	 1	 477	 13.23	 0	 0	 0	 0	 0	 0	 0	 0	 0	 0	 88.2;
	 374	 267.115	 0	 261	-261	 1	 105.84	 1	 521	 13.23	 0	 0	 0	 0	 0	 0	 0	 0	 0	 0	 88.2;
	 377	 78.01	 0	 282	-282	 1	 8.16	 1	 155	 1.02	 0	 0	 0	 0	 0	 0	 0	 0	 0	 0	 6.8;
	 377	 210.915	 0	 282	-282	 1	 206.64	 1	 396	 25.83	 0	 0	 0	 0	 0	 0	 0	 0	 0	 0	 172.2;
	 377	 83.415	 0	 282	-282	 1	 206.64	 1	 141	 25.83	 0	 0	 0	 0	 0	 0	 0	 0	 0	 0	 172.2;
	 377	 114.4375	 0	 282	-282	 1	 135	 1	 212	 16.875	 0	 0	 0	 0	 0	 0	 0	 0	 0	 0	 112.5;
	 377	 116.9375	 0	 282	-282	 1	 135	 1	 217	 16.875	 0	 0	 0	 0	 0	 0	 0	 0	 0	 0	 112.5;
	 377	 70.9375	 0	 282	-282	 1	 135	 1	 125	 16.875	 0	 0	 0	 0	 0	 0	 0	 0	 0	 0	 112.5;
	 377	 100.4375	 0	 282	-282	 1	 135	 1	 184	 16.875	 0	 0	 0	 0	 0	 0	 0	 0	 0	 0	 112.5;
	 377	 86.8325	 0	 282	-282	 1	 229.32	 1	 145	 28.665	 0	 0	 0	 0	 0	 0	 0	 0	 0	 0	 191.1;
	 377	 145.415	 0	 282	-282	 1	 206.64	 1	 265	 25.83	 0	 0	 0	 0	 0	 0	 0	 0	 0	 0	 172.2;
	 377	 119.415	 0	 282	-282	 1	 206.64	 1	 213	 25.83	 0	 0	 0	 0	 0	 0	 0	 0	 0	 0	 172.2;
	 377	 139.915	 0	 282	-282	 1	 206.64	 1	 254	 25.83	 0	 0	 0	 0	 0	 0	 0	 0	 0	 0	 172.2;
	 383	 31.04	 0	 272.4	-272.4	 1	 120.62	 1	 47	 15.08	 0	 0	 0	 0	 0	 0	 0	 0	 0	 0	 100.52;
	 383	 46.25	 0	 272.4	-272.4	 1	 156	 1	 73	 19.5	 0	 0	 0	 0	 0	 0	 0	 0	 0	 0	 130;
	 383	 33.75	 0	 272.4	-272.4	 1	 156	 1	 48	 19.5	 0	 0	 0	 0	 0	 0	 0	 0	 0	 0	 130;
	 383	 36.04	 0	 272.4	-272.4	 1	 120.62	 1	 57	 15.08	 0	 0	 0	 0	 0	 0	 0	 0	 0	 0	 100.52;
	 383	 24.04	 0	 272.4	-272.4	 1	 120.62	 1	 33	 15.08	 0	 0	 0	 0	 0	 0	 0	 0	 0	 0	 100.52;
	 383	 52.04	 0	 272.4	-272.4	 1	 120.62	 1	 89	 15.08	 0	 0	 0	 0	 0	 0	 0	 0	 0	 0	 100.52;
	 383	 78.04	 0	 272.4	-272.4	 1	 120.62	 1	 141	 15.08	 0	 0	 0	 0	 0	 0	 0	 0	 0	 0	 100.52;
	 383	 62.04	 0	 272.4	-272.4	 1	 120.62	 1	 109	 15.08	 0	 0	 0	 0	 0	 0	 0	 0	 0	 0	 100.52;
	 383	 29.625	 0	 272.4	-272.4	 1	 90	 1	 48	 11.25	 0	 0	 0	 0	 0	 0	 0	 0	 0	 0	 75;
	 383	 0	 0	 41.23	-20	 1	 97.2	 0	 40	 12.15	 0	 0	 0	 0	 0	 0	 0	 0	 0	 0	 81;
	 383	 8.8775	 0	 272.4	-272.4	 1	 14.04	 1	 16	 1.755	 0	 0	 0	 0	 0	 0	 0	 0	 0	 0	 11.7;
	 392	 0	 0	 119.58	-26.08	 1	 281.91	 0	 70.48	 18	 0	 0	 0	 0	 0	 0	 0	 0	 0	 0	 234.93;
	 393	 0	 0	 119.58	-90	 1	 281.91	 0	 179	 35.24	 0	 0	 0	 0	 0	 0	 0	 0	 0	 0	 234.93;
	 394	 0	 0	 119.58	-26.08	 1	 281.91	 0	 70.48	 30	 0	 0	 0	 0	 0	 0	 0	 0	 0	 0	 234.93;
	 395	 0	 0	 119.58	-30	 1	 281.91	 0	 60	 35.24	 0	 0	 0	 0	 0	 0	 0	 0	 0	 0	 234.93;
];

mpc_regionR1.branch = [
%	fbus        tbus        r           x           b           rateA       rateB       rateC       ratio       angle       status      angmin      angmax      
	 165	 1	 0.00097	 0.01173	 0.77933	 2020	 2020	 2020	 0	 0	 1	-30	 30;
	 2	 5	 0.01342	 0.05869	 0.00894	 149	 149	 149	 0	 0	 1	-30	 30;
	 3	 5	 0.02816	 0.06884	 0.00901	 98	 98	 98	 0	 0	 1	-30	 30;
	 396	 3	 0.00916	 0.05232	 0.00786	 98	 98	 98	 0	 0	 1	-30	 30;
	 4	 276	 0.01465	 0.06078	 0.01031	 149	 149	 149	 0	 0	 1	-30	 30;
	 5	 168	 0.01405	 0.06262	 0.00918	 149	 149	 149	 0	 0	 1	-30	 30;
	 7	 6	 0.00022	 0.0149	 0	 1299	 1299	 1299	 1	 0	 1	-30	 30;
	 9	 6	 0.00041	 0.02493	 0	 630	 630	 630	 1	 0	 1	-30	 30;
	 10	 6	 0.00012	 0.01417	 0	 626	 626	 626	 1	 0	 1	-30	 30;
	 11	 6	 0.00034	 0.02135	 0	 639	 639	 639	 1	 0	 1	-30	 30;
	 12	 6	 0.00045	 0.02245	 0	 629	 629	 629	 1	 0	 1	-30	 30;
	 13	 6	 0.00049	 0.02499	 0	 625	 625	 625	 1	 0	 1	-30	 30;
	 74	 6	 3e-05	 0.0007	 0.04887	 3146	 3146	 3146	 0	 0	 1	-30	 30;
	 6	 193	 0.00036	 0.00731	 0.51017	 3146	 3146	 3146	 0	 0	 1	-30	 30;
	 327	 6	 0.00016	 0.00189	 0.12566	 2020	 2020	 2020	 0	 0	 1	-30	 30;
	 8	 7	 0.0009	 0.03512	 0	 386	 386	 386	 1	 0	 1	-30	 30;
	 8	 7	 0.0009	 0.03512	 0	 386	 386	 386	 1	 0	 1	-30	 30;
	 8	 7	 0.0009	 0.03512	 0	 386	 386	 386	 1	 0	 1	-30	 30;
	 7	 230	 0.00225	 0.01608	 0.02932	 523	 523	 523	 0	 0	 1	-30	 30;
	 50	 8	 0.00199	 0.01386	 0.00227	 250	 250	 250	 0	 0	 1	-30	 30;
	 50	 8	 0.00199	 0.01386	 0.00227	 250	 250	 250	 0	 0	 1	-30	 30;
	 50	 8	 0.00199	 0.01386	 0.00227	 250	 250	 250	 0	 0	 1	-30	 30;
	 8	 76	 0.0021	 0.01353	 0.00258	 221	 221	 221	 0	 0	 1	-30	 30;
	 8	 76	 0.0021	 0.01353	 0.00258	 221	 221	 221	 0	 0	 1	-30	 30;
	 8	 76	 0.0021	 0.01353	 0.00258	 221	 221	 221	 0	 0	 1	-30	 30;
	 8	 76	 0.0021	 0.01353	 0.00258	 221	 221	 221	 0	 0	 1	-30	 30;
	 8	 306	 0.00591	 0.04035	 0.00687	 221	 221	 221	 0	 0	 1	-30	 30;
	 8	 306	 0.00591	 0.04035	 0.00687	 221	 221	 221	 0	 0	 1	-30	 30;
	 8	 306	 0.00591	 0.04035	 0.00687	 221	 221	 221	 0	 0	 1	-30	 30;
	 14	 148	 0.01896	 0.11385	 0.01545	 98	 98	 98	 0	 0	 1	-30	 30;
	 14	 168	 0.00553	 0.02294	 0.00389	 149	 149	 149	 0	 0	 1	-30	 30;
	 199	 14	 0.00425	 0.01763	 0.00299	 149	 149	 149	 0	 0	 1	-30	 30;
	 220	 15	 0.00899	 0.04008	 0.00588	 149	 149	 149	 0	 0	 1	-30	 30;
	 15	 263	 0.00567	 0.0248	 0.00378	 149	 149	 149	 0	 0	 1	-30	 30;
	 16	 86	 0.00531	 0.03627	 0.00617	 221	 221	 221	 0	 0	 1	-30	 30;
	 304	 16	 0.00603	 0.04198	 0.00686	 221	 221	 221	 0	 0	 1	-30	 30;
	 17	 167	 0.00433	 0.0302	 0.00494	 221	 221	 221	 0	 0	 1	-30	 30;
	 17	 167	 0.00433	 0.0302	 0.00494	 221	 221	 221	 0	 0	 1	-30	 30;
	 17	 380	 0.003	 0.02091	 0.00342	 221	 221	 221	 0	 0	 1	-30	 30;
	 19	 18	 0.00981	 0.21665	 0	 43	 43	 43	 1	 0	 1	-30	 30;
	 18	 70	 0.00476	 0.03249	 0.00553	 221	 221	 221	 0	 0	 1	-30	 30;
	 18	 70	 0.00476	 0.03249	 0.00553	 221	 221	 221	 0	 0	 1	-30	 30;
	 18	 93	 0.01606	 0.03857	 0.00523	 98	 98	 98	 0	 0	 1	-30	 30;
	 18	 183	 0.00415	 0.02371	 0.00356	 221	 221	 221	 0	 0	 1	-30	 30;
	 20	 326	 0.0068	 0.04642	 0.0079	 221	 221	 221	 0	 0	 1	-30	 30;
	 20	 326	 0.0068	 0.04642	 0.0079	 221	 221	 221	 0	 0	 1	-30	 30;
	 20	 326	 0.0068	 0.04642	 0.0079	 221	 221	 221	 0	 0	 1	-30	 30;
	 20	 326	 0.0068	 0.04642	 0.0079	 221	 221	 221	 0	 0	 1	-30	 30;
	 329	 20	 0.002	 0.01369	 0.00233	 221	 221	 221	 0	 0	 1	-30	 30;
	 329	 20	 0.002	 0.01369	 0.00233	 221	 221	 221	 0	 0	 1	-30	 30;
	 329	 20	 0.002	 0.01369	 0.00233	 221	 221	 221	 0	 0	 1	-30	 30;
	 20	 363	 0.00314	 0.02144	 0.00365	 221	 221	 221	 0	 0	 1	-30	 30;
	 20	 363	 0.00314	 0.02144	 0.00365	 221	 221	 221	 0	 0	 1	-30	 30;
	 64	 21	 0.0044	 0.01826	 0.0031	 221	 221	 221	 0	 0	 1	-30	 30;
	 21	 149	 0.00737	 0.04422	 0.006	 221	 221	 221	 0	 0	 1	-30	 30;
	 21	 195	 0.00604	 0.04129	 0.00702	 221	 221	 221	 0	 0	 1	-30	 30;
	 21	 195	 0.00604	 0.04129	 0.00702	 221	 221	 221	 0	 0	 1	-30	 30;
	 21	 195	 0.00604	 0.04129	 0.00702	 221	 221	 221	 0	 0	 1	-30	 30;
	 21	 207	 0.00382	 0.01669	 0.00254	 149	 149	 149	 0	 0	 1	-30	 30;
	 21	 346	 0.00298	 0.01922	 0.00367	 221	 221	 221	 0	 0	 1	-30	 30;
	 21	 346	 0.00298	 0.01922	 0.00367	 221	 221	 221	 0	 0	 1	-30	 30;
	 22	 47	 0.0032	 0.02067	 0.00394	 221	 221	 221	 0	 0	 1	-30	 30;
	 22	 47	 0.0032	 0.02067	 0.00394	 221	 221	 221	 0	 0	 1	-30	 30;
	 22	 225	 0.01125	 0.07265	 0.01386	 221	 221	 221	 0	 0	 1	-30	 30;
	 239	 22	 0.00548	 0.0382	 0.00624	 221	 221	 221	 0	 0	 1	-30	 30;
	 239	 22	 0.00548	 0.0382	 0.00624	 221	 221	 221	 0	 0	 1	-30	 30;
	 23	 123	 0.00228	 0.01559	 0.00265	 221	 221	 221	 0	 0	 1	-30	 30;
	 23	 123	 0.00228	 0.01559	 0.00265	 221	 221	 221	 0	 0	 1	-30	 30;
	 23	 200	 0.00431	 0.01886	 0.00287	 149	 149	 149	 0	 0	 1	-30	 30;
	 23	 211	 0.00974	 0.04259	 0.00649	 149	 149	 149	 0	 0	 1	-30	 30;
	 23	 386	 0.015	 0.06687	 0.00981	 149	 149	 149	 0	 0	 1	-30	 30;
	 115	 24	 0.0011	 0.00768	 0.00126	 300	 300	 300	 0	 0	 1	-30	 30;
	 115	 24	 0.0011	 0.00768	 0.00126	 300	 300	 300	 0	 0	 1	-30	 30;
	 24	 186	 0.00381	 0.02289	 0.00311	 221	 221	 221	 0	 0	 1	-30	 30;
	 24	 206	 0.00642	 0.01568	 0.00205	 221	 221	 221	 0	 0	 1	-30	 30;
	 24	 292	 0.01183	 0.02841	 0.00385	 221	 221	 221	 0	 0	 1	-30	 30;
	 26	 25	 0.00036	 0.02039	 0	 368	 368	 368	 1	 0	 1	-30	 30;
	 30	 25	 0.00756	 0.05402	 0.09848	 523	 523	 523	 0	 0	 1	-30	 30;
	 41	 25	 0.00217	 0.01547	 0.02821	 443	 443	 443	 0	 0	 1	-30	 30;
	 25	 351	 0.00154	 0.01505	 0.02896	 548	 548	 548	 0	 0	 1	-30	 30;
	 25	 390	 0.00526	 0.05146	 0.09901	 548	 548	 548	 0	 0	 1	-30	 30;
	 26	 97	 0.005	 0.02228	 0.00327	 149	 149	 149	 0	 0	 1	-30	 30;
	 386	 26	 0.00448	 0.03123	 0.00511	 221	 221	 221	 0	 0	 1	-30	 30;
	 386	 26	 0.00448	 0.03123	 0.00511	 221	 221	 221	 0	 0	 1	-30	 30;
	 28	 27	 0.00016	 0.00995	 0	 1055	 1055	 1055	 1	 0	 1	-30	 30;
	 32	 27	 0.00024	 0.00293	 0.19466	 2020	 2020	 2020	 0	 0	 1	-30	 30;
	 27	 383	 0.0006	 0.01232	 0.85919	 2768	 2768	 2768	 0	 0	 1	-30	 30;
	 29	 28	 0.00084	 0.02618	 0	 420	 420	 420	 1	 0	 1	-30	 30;
	 29	 28	 0.00084	 0.02618	 0	 420	 420	 420	 1	 0	 1	-30	 30;
	 95	 28	 0.00089	 0.00924	 0.03147	 750	 750	 750	 0	 0	 1	-30	 30;
	 95	 28	 0.00089	 0.00924	 0.03147	 750	 750	 750	 0	 0	 1	-30	 30;
	 28	 150	 0.00247	 0.02419	 0.04653	 647	 647	 647	 0	 0	 1	-30	 30;
	 367	 28	 0.0006	 0.00622	 0.02121	 750	 750	 750	 0	 0	 1	-30	 30;
	 367	 28	 0.0006	 0.00622	 0.02121	 750	 750	 750	 0	 0	 1	-30	 30;
	 29	 71	 0.00285	 0.01988	 0.00325	 221	 221	 221	 0	 0	 1	-30	 30;
	 29	 71	 0.00285	 0.01988	 0.00325	 221	 221	 221	 0	 0	 1	-30	 30;
	 29	 71	 0.00285	 0.01988	 0.00325	 221	 221	 221	 0	 0	 1	-30	 30;
	 29	 358	 0.02904	 0.06977	 0.00947	 240	 240	 240	 0	 0	 1	-30	 30;
	 31	 30	 0.00089	 0.03362	 0	 337	 337	 337	 1	 0	 1	-30	 30;
	 31	 30	 0.00089	 0.03362	 0	 337	 337	 337	 1	 0	 1	-30	 30;
	 30	 52	 0.00208	 0.02159	 0.07357	 750	 750	 750	 0	 0	 1	-30	 30;
	 30	 52	 0.00208	 0.02159	 0.07357	 750	 750	 750	 0	 0	 1	-30	 30;
	 31	 204	 0.01373	 0.06121	 0.00898	 149	 149	 149	 0	 0	 1	-30	 30;
	 355	 31	 0.00776	 0.05303	 0.00902	 221	 221	 221	 0	 0	 1	-30	 30;
	 355	 31	 0.00776	 0.05303	 0.00902	 221	 221	 221	 0	 0	 1	-30	 30;
	 33	 32	 0.00011	 0.00819	 0	 1125	 1125	 1125	 1	 0	 1	-30	 30;
	 165	 32	 0.00024	 0.00294	 0.19535	 2020	 2020	 2020	 0	 0	 1	-30	 30;
	 34	 33	 0.00068	 0.02653	 0	 466	 466	 466	 1	 0	 1	-30	 30;
	 34	 33	 0.00068	 0.02653	 0	 466	 466	 466	 1	 0	 1	-30	 30;
	 194	 33	 0.00068	 0.00665	 0.01279	 548	 548	 548	 0	 0	 1	-30	 30;
	 303	 33	 0.00134	 0.01309	 0.02519	 548	 548	 548	 0	 0	 1	-30	 30;
	 34	 64	 0.00671	 0.04677	 0.00764	 221	 221	 221	 0	 0	 1	-30	 30;
	 277	 34	 0.00436	 0.03039	 0.00497	 221	 221	 221	 0	 0	 1	-30	 30;
	 277	 34	 0.00436	 0.03039	 0.00497	 221	 221	 221	 0	 0	 1	-30	 30;
	 277	 34	 0.00436	 0.03039	 0.00497	 221	 221	 221	 0	 0	 1	-30	 30;
	 35	 65	 0.00351	 0.02269	 0.00433	 221	 221	 221	 0	 0	 1	-30	 30;
	 35	 65	 0.00351	 0.02269	 0.00433	 221	 221	 221	 0	 0	 1	-30	 30;
	 35	 217	 0.01093	 0.04781	 0.00728	 149	 149	 149	 0	 0	 1	-30	 30;
	 36	 61	 0.01063	 0.0465	 0.00708	 149	 149	 149	 0	 0	 1	-30	 30;
	 36	 147	 0.00631	 0.03605	 0.00542	 98	 98	 98	 0	 0	 1	-30	 30;
	 240	 36	 0.00383	 0.01676	 0.00255	 221	 221	 221	 0	 0	 1	-30	 30;
	 36	 326	 0.00182	 0.01243	 0.00211	 221	 221	 221	 0	 0	 1	-30	 30;
	 36	 326	 0.00182	 0.01243	 0.00211	 221	 221	 221	 0	 0	 1	-30	 30;
	 37	 38	 0.00939	 0.06413	 0.01091	 221	 221	 221	 0	 0	 1	-30	 30;
	 37	 38	 0.00939	 0.06413	 0.01091	 221	 221	 221	 0	 0	 1	-30	 30;
	 37	 38	 0.00939	 0.06413	 0.01091	 221	 221	 221	 0	 0	 1	-30	 30;
	 37	 149	 0.00858	 0.03822	 0.0056	 221	 221	 221	 0	 0	 1	-30	 30;
	 37	 187	 0.00969	 0.0402	 0.00682	 149	 149	 149	 0	 0	 1	-30	 30;
	 222	 37	 0.00256	 0.01655	 0.00316	 221	 221	 221	 0	 0	 1	-30	 30;
	 222	 37	 0.00256	 0.01655	 0.00316	 221	 221	 221	 0	 0	 1	-30	 30;
	 38	 309	 0.00216	 0.01507	 0.00246	 250	 250	 250	 0	 0	 1	-30	 30;
	 38	 309	 0.00216	 0.01507	 0.00246	 250	 250	 250	 0	 0	 1	-30	 30;
	 38	 309	 0.00216	 0.01507	 0.00246	 250	 250	 250	 0	 0	 1	-30	 30;
	 39	 61	 0.01035	 0.06217	 0.00844	 98	 98	 98	 0	 0	 1	-30	 30;
	 209	 39	 0.00558	 0.03601	 0.00687	 221	 221	 221	 0	 0	 1	-30	 30;
	 39	 348	 0.00566	 0.0323	 0.00485	 98	 98	 98	 0	 0	 1	-30	 30;
	 40	 93	 0.00357	 0.02439	 0.00415	 221	 221	 221	 0	 0	 1	-30	 30;
	 40	 93	 0.00357	 0.02439	 0.00415	 221	 221	 221	 0	 0	 1	-30	 30;
	 154	 40	 0.0014	 0.00978	 0.0016	 221	 221	 221	 0	 0	 1	-30	 30;
	 154	 40	 0.0014	 0.00978	 0.0016	 221	 221	 221	 0	 0	 1	-30	 30;
	 154	 40	 0.0014	 0.00978	 0.0016	 221	 221	 221	 0	 0	 1	-30	 30;
	 154	 40	 0.0014	 0.00978	 0.0016	 221	 221	 221	 0	 0	 1	-30	 30;
	 216	 40	 0.00146	 0.01001	 0.0017	 250	 250	 250	 0	 0	 1	-30	 30;
	 216	 40	 0.00146	 0.01001	 0.0017	 250	 250	 250	 0	 0	 1	-30	 30;
	 42	 41	 0.00161	 0.04976	 0	 377	 377	 377	 1	 0	 1	-30	 30;
	 41	 122	 0.00287	 0.02047	 0.03732	 443	 443	 443	 0	 0	 1	-30	 30;
	 41	 126	 0.00187	 0.01944	 0.06623	 750	 750	 750	 0	 0	 1	-30	 30;
	 41	 375	 0.0013	 0.0093	 0.01695	 443	 443	 443	 0	 0	 1	-30	 30;
	 181	 42	 0.00223	 0.01557	 0.00254	 221	 221	 221	 0	 0	 1	-30	 30;
	 181	 42	 0.00223	 0.01557	 0.00254	 221	 221	 221	 0	 0	 1	-30	 30;
	 43	 211	 0.00829	 0.04734	 0.00711	 98	 98	 98	 0	 0	 1	-30	 30;
	 43	 254	 0.00748	 0.04274	 0.00642	 98	 98	 98	 0	 0	 1	-30	 30;
	 43	 305	 0.01002	 0.02449	 0.00321	 98	 98	 98	 0	 0	 1	-30	 30;
	 45	 44	 0.0023	 0.07154	 0	 145.8	 145.8	 145.8	 1	 0	 1	-30	 30;
	 267	 44	 0.0021	 0.0205	 0.03945	 548	 548	 548	 0	 0	 1	-30	 30;
	 45	 371	 0.01312	 0.05846	 0.00857	 149	 149	 149	 0	 0	 1	-30	 30;
	 46	 70	 0.00621	 0.04324	 0.00707	 221	 221	 221	 0	 0	 1	-30	 30;
	 46	 223	 0.00619	 0.03538	 0.00532	 98	 98	 98	 0	 0	 1	-30	 30;
	 46	 279	 0.00528	 0.03607	 0.00614	 221	 221	 221	 0	 0	 1	-30	 30;
	 46	 359	 0.00238	 0.01063	 0.00156	 149	 149	 149	 0	 0	 1	-30	 30;
	 47	 59	 0.00344	 0.02395	 0.00391	 221	 221	 221	 0	 0	 1	-30	 30;
	 47	 59	 0.00344	 0.02395	 0.00391	 221	 221	 221	 0	 0	 1	-30	 30;
	 49	 48	 0.00062	 0.03776	 0	 185	 185	 185	 1	 0	 1	-30	 30;
	 137	 48	 0.0022	 0.01575	 0.02871	 443	 443	 443	 0	 0	 1	-30	 30;
	 171	 48	 0.00402	 0.03929	 0.07559	 548	 548	 548	 0	 0	 1	-30	 30;
	 366	 49	 0.00499	 0.02067	 0.00351	 149	 149	 149	 0	 0	 1	-30	 30;
	 50	 348	 0.01167	 0.07976	 0.01357	 221	 221	 221	 0	 0	 1	-30	 30;
	 50	 348	 0.01167	 0.07976	 0.01357	 221	 221	 221	 0	 0	 1	-30	 30;
	 50	 359	 0.00592	 0.03823	 0.00729	 221	 221	 221	 0	 0	 1	-30	 30;
	 50	 359	 0.00592	 0.03823	 0.00729	 221	 221	 221	 0	 0	 1	-30	 30;
	 52	 51	 7e-05	 0.00459	 0	 1233	 1233	 1233	 1	 0	 1	-30	 30;
	 54	 51	 0.00024	 0.01675	 0	 855	 855	 855	 1	 0	 1	-30	 30;
	 55	 51	 0.00037	 0.02147	 0	 857	 857	 857	 1	 0	 1	-30	 30;
	 56	 51	 0.0003	 0.02166	 0	 863	 863	 863	 1	 0	 1	-30	 30;
	 57	 51	 0.00028	 0.01719	 0	 847	 847	 847	 1	 0	 1	-30	 30;
	 170	 51	 0.00014	 0.00172	 0.1143	 2020	 2020	 2020	 0	 0	 1	-30	 30;
	 51	 377	 0.00061	 0.00741	 0.49226	 2020	 2020	 2020	 0	 0	 1	-30	 30;
	 53	 52	 0.0011	 0.04562	 0	 220	 220	 220	 1	 0	 1	-30	 30;
	 52	 245	 0.00125	 0.00896	 0.01633	 523	 523	 523	 0	 0	 1	-30	 30;
	 172	 53	 0.00828	 0.03692	 0.00541	 149	 149	 149	 0	 0	 1	-30	 30;
	 53	 242	 0.00273	 0.01863	 0.00317	 221	 221	 221	 0	 0	 1	-30	 30;
	 53	 242	 0.00273	 0.01863	 0.00317	 221	 221	 221	 0	 0	 1	-30	 30;
	 59	 58	 0.00053	 0.03003	 0	 355	 355	 355	 1	 0	 1	-30	 30;
	 59	 58	 0.00053	 0.03003	 0	 355	 355	 355	 1	 0	 1	-30	 30;
	 58	 75	 0.00233	 0.0228	 0.04386	 548	 548	 548	 0	 0	 1	-30	 30;
	 58	 137	 0.00193	 0.01885	 0.03628	 548	 548	 548	 0	 0	 1	-30	 30;
	 58	 150	 0.00606	 0.04326	 0.07887	 443	 443	 443	 0	 0	 1	-30	 30;
	 58	 230	 0.0013	 0.01272	 0.02448	 647	 647	 647	 0	 0	 1	-30	 30;
	 378	 58	 0.00173	 0.01235	 0.02252	 443	 443	 443	 0	 0	 1	-30	 30;
	 60	 210	 0.01057	 0.07367	 0.01204	 221	 221	 221	 0	 0	 1	-30	 30;
	 60	 210	 0.01057	 0.07367	 0.01204	 221	 221	 221	 0	 0	 1	-30	 30;
	 370	 60	 0.00305	 0.02125	 0.00347	 221	 221	 221	 0	 0	 1	-30	 30;
	 370	 60	 0.00305	 0.02125	 0.00347	 221	 221	 221	 0	 0	 1	-30	 30;
	 61	 188	 0.00549	 0.02279	 0.00387	 149	 149	 149	 0	 0	 1	-30	 30;
	 61	 374	 0.01003	 0.0648	 0.01236	 221	 221	 221	 0	 0	 1	-30	 30;
	 61	 374	 0.01003	 0.0648	 0.01236	 221	 221	 221	 0	 0	 1	-30	 30;
	 62	 96	 0.00301	 0.01945	 0.00371	 250	 250	 250	 0	 0	 1	-30	 30;
	 62	 96	 0.00301	 0.01945	 0.00371	 250	 250	 250	 0	 0	 1	-30	 30;
	 62	 96	 0.00301	 0.01945	 0.00371	 250	 250	 250	 0	 0	 1	-30	 30;
	 62	 96	 0.00301	 0.01945	 0.00371	 250	 250	 250	 0	 0	 1	-30	 30;
...
];

mpc_regionR1.gencost = [
%	2           startup     shutdown    n           c(n-1)...c0 
	 2	 0	 0	 3	 0.001	 15.681	 844.5;
	 2	 0	 0	 3	 0.001	 15.681	 844.5;
	 2	 0	 0	 3	 0.001	 15.681	 844.5;
	 2	 0	 0	 3	 0.001	 15.681	 844.5;
	 2	 0	 0	 3	 0.001	 15.681	 844.5;
	 2	 0	 0	 3	 0.001	 14.983	 606;
	 2	 0	 0	 3	 0.001	 15.969	 942.97;
	 2	 0	 0	 3	 0.001	 15.969	 942.97;
	 2	 0	 0	 3	 0.001	 15.969	 942.97;
	 2	 0	 0	 3	 0.001	 15.969	 942.97;
	 2	 0	 0	 3	 0.001	 15.624	 825;
	 2	 0	 0	 3	 0.001	 15.19	 676.5;
	 2	 0	 0	 3	 0.001	 15.19	 676.5;
	 2	 0	 0	 3	 0.001	 15.826	 894;
	 2	 0	 0	 3	 0.001	 15.826	 894;
	 2	 0	 0	 3	 0.001	 15.826	 894;
	 2	 0	 0	 3	 0.001	 15.826	 894;
	 2	 0	 0	 3	 0.001	 15.826	 894;
	 2	 0	 0	 3	 0.001	 15.826	 894;
	 2	 0	 0	 3	 0.001	 14.982	 605.55;
	 2	 0	 0	 3	 0.001	 14.985	 606.45;
	 2	 0	 0	 3	 0.001	 15.037	 624.45;
	 2	 0	 0	 3	 0.001	 15.872	 909.83;
	 2	 0	 0	 3	 0.001	 15.872	 909.83;
	 2	 0	 0	 3	 0.001	 15.872	 909.83;
	 2	 0	 0	 3	 0.001	 15.872	 909.83;
	 2	 0	 0	 3	 0.001	 16.636	 1171.05;
	 2	 0	 0	 3	 0.001	 15.225	 688.5;
	 2	 0	 0	 3	 0.001	 15.225	 688.5;
	 2	 0	 0	 3	 0.001	 15.225	 688.5;
	 2	 0	 0	 3	 0.001	 15.225	 688.5;
	 2	 0	 0	 3	 0.001	 15.011	 615.3;
	 2	 0	 0	 3	 0.001	 15.451	 765.9;
	 2	 0	 0	 3	 0.001	 15.451	 765.9;
	 2	 0	 0	 3	 0.001	 15.451	 765.9;
	 2	 0	 0	 3	 0.001	 15.451	 765.9;
	 2	 0	 0	 3	 0.001	 15.451	 765.9;
	 2	 0	 0	 3	 0.001	 15.451	 765.9;
	 2	 0	 0	 3	 0.001	 15.351	 731.58;
	 2	 0	 0	 3	 0.001	 15.351	 731.58;
	 2	 0	 0	 3	 0.001	 16.505	 1126.31;
	 2	 0	 0	 3	 0.001	 14.996	 610.35;
	 2	 0	 0	 3	 0.001	 15.177	 672;
	 2	 0	 0	 3	 0.001	 14.988	 607.5;
	 2	 0	 0	 3	 0.001	 15.119	 652.5;
	 2	 0	 0	 3	 0.001	 14.999	 611.25;
	 2	 0	 0	 3	 0.001	 15.979	 946.42;
	 2	 0	 0	 3	 0.001	 15.979	 946.42;
	 2	 0	 0	 3	 0.001	 15.979	 946.42;
	 2	 0	 0	 3	 0.001	 15.979	 946.42;
	 2	 0	 0	 3	 0.001	 14.983	 606;
	 2	 0	 0	 3	 0.001	 18.322	 3859;
	 2	 0	 0	 3	 0.001	 18.322	 3859;
	 2	 0	 0	 3	 0.001	 15.749	 867.75;
	 2	 0	 0	 3	 0.001	 15.749	 867.75;
	 2	 0	 0	 3	 0.001	 15.749	 867.75;
	 2	 0	 0	 3	 0.001	 16.302	 1056.9;
	 2	 0	 0	 3	 0.001	 15.364	 735.96;
	 2	 0	 0	 3	 0.001	 15.364	 735.96;
	 2	 0	 0	 3	 0.001	 15.364	 735.96;
	 2	 0	 0	 3	 0.001	 15.761	 871.92;
	 2	 0	 0	 3	 0.001	 15.079	 638.55;
	 2	 0	 0	 3	 0.001	 15.032	 622.5;
	 2	 0	 0	 3	 0	 0	 0;
	 2	 0	 0	 3	 0	 0	 0;
	 2	 0	 0	 3	 0	 0	 0;
	 2	 0	 0	 3	 0	 0	 0;
	 2	 0	 0	 3	 0	 0	 0;
	 2	 0	 0	 3	 0	 0	 0;
	 2	 0	 0	 3	 0.001	 16.984	 745.02;
	 2	 0	 0	 3	 0.001	 16.984	 745.02;
	 2	 0	 0	 3	 0.001	 16.984	 745.02;
	 2	 0	 0	 3	 0.001	 16.984	 745.02;
	 2	 0	 0	 3	 0.001	 17.452	 890.05;
	 2	 0	 0	 3	 0.001	 15.512	 786.72;
	 2	 0	 0	 3	 0.001	 15.512	 786.72;
	 2	 0	 0	 3	 0.001	 15.512	 786.72;
	 2	 0	 0	 3	 0.001	 15.512	 786.72;
	 2	 0	 0	 3	 0.001	 17.009	 752.85;
	 2	 0	 0	 3	 0.002	 18.671	 236.13;
	 2	 0	 0	 3	 0.002	 18.671	 1264.89;
	 2	 0	 0	 3	 0.001	 16.343	 1070.74;
	 2	 0	 0	 3	 0.001	 16.343	 1070.74;
	 2	 0	 0	 3	 0.001	 16.343	 1070.74;
	 2	 0	 0	 3	 0.001	 16.343	 1070.74;
	 2	 0	 0	 3	 0.001	 17.967	 3859;
	 2	 0	 0	 3	 0.001	 17.967	 3859;
	 2	 0	 0	 3	 0.001	 17.967	 3859;
	 2	 0	 0	 3	 0.001	 17.967	 3859;
	 2	 0	 0	 3	 0.001	 15.037	 624.45;
	 2	 0	 0	 3	 0.001	 15.954	 937.8;
	 2	 0	 0	 3	 0.001	 15.954	 937.8;
	 2	 0	 0	 3	 0.001	 15.954	 937.8;
	 2	 0	 0	 3	 0.001	 15.416	 754.05;
	 2	 0	 0	 3	 0.001	 15.437	 760.91;
	 2	 0	 0	 3	 0.001	 15.437	 760.91;
	 2	 0	 0	 3	 0.001	 15.437	 760.91;
	 2	 0	 0	 3	 0.001	 15.437	 760.91;
	 2	 0	 0	 3	 0.001	 15.437	 760.91;
	 2	 0	 0	 3	 0.001	 15.437	 760.91;
	 2	 0	 0	 3	 0.001	 15.772	 875.49;
	 2	 0	 0	 3	 0.001	 15.772	 875.49;
	 2	 0	 0	 3	 0.001	 15.772	 875.49;
	 2	 0	 0	 3	 0.001	 15.772	 875.49;
	 2	 0	 0	 3	 0.001	 15.772	 875.49;
	 2	 0	 0	 3	 0.001	 17.347	 2926.93;
	 2	 0	 0	 3	 0.001	 15.282	 708;
	 2	 0	 0	 3	 0.001	 15.282	 708;
	 2	 0	 0	 3	 0.001	 15.282	 708;
	 2	 0	 0	 3	 0.001	 15.282	 708;
	 2	 0	 0	 3	 0.001	 15.598	 816;
	 2	 0	 0	 3	 0.001	 16.924	 1356.09;
	 2	 0	 0	 3	 0.001	 15.353	 732.3;
	 2	 0	 0	 3	 0.001	 15.353	 732.3;
	 2	 0	 0	 3	 0.001	 14.996	 610.2;
	 2	 0	 0	 3	 0.001	 15.721	 858.3;
	 2	 0	 0	 3	 0.001	 15.721	 858.3;
	 2	 0	 0	 3	 0.001	 15.459	 768.75;
	 2	 0	 0	 3	 0.001	 15.459	 768.75;
	 2	 0	 0	 3	 0.001	 15.459	 768.75;
	 2	 0	 0	 3	 0.001	 15.459	 768.75;
	 2	 0	 0	 3	 0.001	 15.804	 886.65;
	 2	 0	 0	 3	 0.001	 15.721	 858.3;
	 2	 0	 0	 3	 0.001	 15.721	 858.3;
	 2	 0	 0	 3	 0.001	 15.721	 858.3;
	 2	 0	 0	 3	 0.001	 15.407	 750.78;
	 2	 0	 0	 3	 0.001	 15.536	 795;
	 2	 0	 0	 3	 0.001	 15.536	 795;
	 2	 0	 0	 3	 0.001	 15.407	 750.78;
	 2	 0	 0	 3	 0.001	 15.407	 750.78;
	 2	 0	 0	 3	 0.001	 15.407	 750.78;
	 2	 0	 0	 3	 0.001	 15.407	 750.78;
	 2	 0	 0	 3	 0.001	 15.407	 750.78;
	 2	 0	 0	 3	 0.001	 15.295	 712.5;
	 2	 0	 0	 3	 0.001	 15.321	 721.5;
	 2	 0	 0	 3	 0.001	 15.017	 617.55;
	 2	 0	 0	 3	 0.002	 19.422	 952.4;
	 2	 0	 0	 3	 0.002	 19.422	 952.4;
	 2	 0	 0	 3	 0.002	 19.422	 952.4;
	 2	 0	 0	 3	 0.002	 19.422	 952.4;
];


% -------------------- mpc_regionR2 --------------------

mpc_regionR2.version = '2';
mpc_regionR2.baseMVA = 100.0000;
mpc_regionR2.bus = [
%	bus_i       type        Pd          Qd          Gs          Bs          area        Vm          Va          baseKV      zone        Vmax        Vmin        
	 1	 1	 149.34	 36.07	 0	 0	 4	 1	 0	 115	 19	 1.1	 0.9;
	 2	 1	 3.23	 0.78	 0	 0	 4	 1	 0	 115	 20	 1.1	 0.9;
	 3	 1	 215.47	 52.04	 0	 0	 4	 1	 0	 115	 19	 1.1	 0.9;
	 4	 1	 0	 0	 0	 0	 4	 1	 0	 115	 21	 1.1	 0.9;
	 5	 2	 0	 0	 0	 0	 4	 1	 0	 20	 21	 1.1	 0.9;
	 6	 1	 18.83	 4.55	 0	 0	 4	 1	 0	 115	 19	 1.1	 0.9;
	 7	 1	 16.12	 3.89	 0	 50	 4	 1	 0	 115	 19	 1.1	 0.9;
	 8	 1	 108.34	 26.17	 0	 0	 4	 1	 0	 115	 19	 1.1	 0.9;
	 9	 1	 159.36	 38.48	 0	 0	 4	 1	 0	 115	 19	 1.1	 0.9;
	 10	 1	 37.51	 9.06	 0	 0	 4	 1	 0	 115	 19	 1.1	 0.9;
	 11	 1	 76.4	 18.45	 0	 0	 4	 1	 0	 115	 19	 1.1	 0.9;
	 12	 1	 3.23	 0.78	 0	 0	 4	 1	 0	 115	 20	 1.1	 0.9;
	 13	 1	 44.16	 10.66	 0	 0	 4	 1	 0	 115	 19	 1.1	 0.9;
	 14	 1	 0	 0	 0	 0	 4	 1	 0	 230	 19	 1.1	 0.9;
	 15	 1	 264.74	 63.94	 0	 342.33	 4	 1	 0	 115	 19	 1.1	 0.9;
	 16	 1	 0	 0	 0	 0	 4	 1	 0	 230	 19	 1.1	 0.9;
	 17	 1	 252.45	 60.97	 0	 0	 4	 1	 0	 115	 19	 1.1	 0.9;
	 18	 1	 2.9	 0.7	 0	 0	 4	 1	 0	 115	 19	 1.1	 0.9;
	 19	 1	 0	 0	 0	 0	 4	 1	 0	 115	 19	 1.1	 0.9;
	 20	 2	 0	 0	 0	 0	 4	 1	 0	 13.8	 19	 1.1	 0.9;
	 21	 2	 0	 0	 0	 0	 4	 1	 0	 13.8	 19	 1.1	 0.9;
	 22	 2	 0	 0	 0	 0	 4	 1	 0	 13.8	 19	 1.1	 0.9;
	 23	 1	 15.37	 3.71	 0	 0	 4	 1	 0	 115	 19	 1.1	 0.9;
	 24	 1	 0	 0	 0	 0	 4	 1	 0	 115	 19	 1.1	 0.9;
	 25	 2	 0	 0	 0	 0	 4	 1	 0	 13.8	 19	 1.1	 0.9;
	 26	 1	 0.13	 0.03	 0	 0	 4	 1	 0	 115	 19	 1.1	 0.9;
	 27	 1	 224.7	 54.27	 0	 145.13	 4	 1	 0	 115	 19	 1.1	 0.9;
	 28	 1	 187.08	 45.18	 0	 0	 4	 1	 0	 115	 19	 1.1	 0.9;
	 29	 1	 32.84	 7.93	 0	 0	 4	 1	 0	 115	 19	 1.1	 0.9;
	 30	 1	 0	 0	 0	 0	 4	 1	 0	 230	 19	 1.1	 0.9;
	 31	 1	 330.2	 79.75	 0	 0	 4	 1	 0	 115	 19	 1.1	 0.9;
	 32	 1	 0	 0	 0	 0	 4	 1	 0	 230	 19	 1.1	 0.9;
	 33	 1	 0	 0	 0	 0	 4	 1	 0	 115	 19	 1.1	 0.9;
	 34	 2	 0	 0	 0	 0	 4	 1	 0	 24	 19	 1.1	 0.9;
	 35	 2	 0	 0	 0	 0	 4	 1	 0	 24	 19	 1.1	 0.9;
	 36	 2	 0	 0	 0	 0	 4	 1	 0	 24	 19	 1.1	 0.9;
	 37	 1	 200.86	 48.51	 0	 0	 4	 1	 0	 115	 19	 1.1	 0.9;
	 38	 1	 23.31	 5.63	 0	 95.16	 4	 1	 0	 115	 19	 1.1	 0.9;
	 39	 1	 249.33	 60.21	 0	 278.42	 4	 1	 0	 115	 19	 1.1	 0.9;
	 40	 1	 10.09	 2.44	 0	 0	 4	 1	 0	 115	 19	 1.1	 0.9;
	 41	 2	 0	 0	 0	 0	 4	 1	 0	 13.8	 19	 1.1	 0.9;
	 42	 2	 0	 0	 0	 0	 4	 1	 0	 13.8	 19	 1.1	 0.9;
	 43	 2	 0	 0	 0	 0	 4	 1	 0	 13.8	 19	 1.1	 0.9;
	 44	 2	 0	 0	 0	 0	 4	 1	 0	 13.8	 19	 1.1	 0.9;
	 45	 2	 0	 0	 0	 0	 4	 1	 0	 13.8	 19	 1.1	 0.9;
	 46	 2	 0	 0	 0	 0	 4	 1	 0	 13.8	 19	 1.1	 0.9;
	 47	 2	 0	 0	 0	 0	 4	 1	 0	 13.8	 19	 1.1	 0.9;
	 48	 2	 0	 0	 0	 0	 4	 1	 0	 13.8	 19	 1.1	 0.9;
	 49	 2	 0	 0	 0	 0	 4	 1	 0	 13.8	 19	 1.1	 0.9;
	 50	 1	 28.36	 6.85	 0	 0	 4	 1	 0	 115	 19	 1.1	 0.9;
	 51	 1	 222.77	 53.8	 0	 120	 4	 1	 0	 115	 19	 1.1	 0.9;
	 52	 1	 44.05	 10.64	 0	 0	 4	 1	 0	 115	 19	 1.1	 0.9;
	 53	 1	 138.86	 33.54	 0	 0	 4	 1	 0	 115	 19	 1.1	 0.9;
	 54	 1	 67.28	 16.25	 0	 0	 4	 1	 0	 115	 19	 1.1	 0.9;
	 55	 1	 122.11	 29.49	 0	 0	 4	 1	 0	 115	 19	 1.1	 0.9;
	 56	 1	 6.56	 1.58	 0	 0	 4	 1	 0	 115	 21	 1.1	 0.9;
	 57	 1	 65.19	 15.75	 0	 0	 4	 1	 0	 115	 19	 1.1	 0.9;
	 58	 1	 4.82	 1.16	 0	 50	 4	 1	 0	 115	 19	 1.1	 0.9;
	 59	 1	 171.42	 41.4	 0	 150	 4	 1	 0	 115	 19	 1.1	 0.9;
	 60	 1	 28.6	 6.91	 0	 0	 4	 1	 0	 115	 19	 1.1	 0.9;
	 61	 1	 149.44	 36.09	 0	 0	 4	 1	 0	 115	 19	 1.1	 0.9;
	 62	 1	 144.9	 35	 0	 70	 4	 1	 0	 115	 19	 1.1	 0.9;
	 63	 1	 0	 0	 0	 0	 4	 1	 0	 230	 21	 1.1	 0.9;
	 64	 1	 0	 0	 0	 60.3	 4	 1	 0	 115	 21	 1.1	 0.9;
	 65	 2	 0	 0	 0	 0	 4	 1	 0	 13.8	 21	 1.1	 0.9;
	 66	 1	 0	 0	 0	 0	 4	 1	 0	 230	 20	 1.1	 0.9;
	 67	 1	 227.18	 54.87	 0	 92.09	 4	 1	 0	 115	 20	 1.1	 0.9;
	 68	 1	 0	 0	 0	 0	 4	 1	 0	 230	 21	 1.1	 0.9;
	 69	 1	 0	 0	 0	 0	 4	 1	 0	 115	 21	 1.1	 0.9;
	 70	 2	 0	 0	 0	 0	 4	 1	 0	 18	 21	 1.1	 0.9;
	 71	 1	 30.88	 7.46	 0	 0	 4	 1	 0	 115	 19	 1.1	 0.9;
	 72	 1	 22.82	 5.51	 0	 0	 4	 1	 0	 115	 19	 1.1	 0.9;
	 73	 1	 122.8	 29.66	 0	 0	 4	 1	 0	 115	 19	 1.1	 0.9;
	 74	 1	 2.38	 0.57	 0	 0	 4	 1	 0	 115	 19	 1.1	 0.9;
	 75	 1	 0	 0	 0	 0	 4	 1	 0	 115	 21	 1.1	 0.9;
	 76	 2	 0	 0	 0	 0	 4	 1	 0	 13.8	 21	 1.1	 0.9;
	 77	 1	 6.23	 1.5	 0	 0	 4	 1	 0	 115	 19	 1.1	 0.9;
	 78	 1	 196.66	 47.5	 0	 100	 4	 1	 0	 115	 19	 1.1	 0.9;
	 79	 2	 0	 0	 0	 0	 4	 1	 0	 230	 19	 1.1	 0.9;
	 80	 1	 0	 0	 0	 0	 4	 1	 0	 115	 19	 1.1	 0.9;
	 81	 1	 44.39	 10.72	 0	 20.63	 4	 1	 0	 115	 19	 1.1	 0.9;
	 82	 1	 43.48	 10.5	 0	 53.8	 4	 1	 0	 115	 19	 1.1	 0.9;
	 83	 1	 54.47	 13.16	 0	 0	 4	 1	 0	 115	 19	 1.1	 0.9;
	 84	 2	 0	 0	 0	 0	 4	 1	 0	 230	 19	 1.1	 0.9;
	 85	 1	 209.09	 50.5	 0	 0	 4	 1	 0	 115	 19	 1.1	 0.9;
	 86	 2	 0	 0	 0	 0	 4	 1	 0	 115	 19	 1.1	 0.9;
	 87	 1	 0	 0	 0	 0	 4	 1	 0	 230	 20	 1.1	 0.9;
	 88	 1	 0	 0	 0	 0	 4	 1	 0	 115	 20	 1.1	 0.9;
];

mpc_regionR2.gen = [
%	bus         Pg          Qg          Qmax        Qmin        Vg          mBase       status      Pmax        Pmin        Pc1         Pc2         Qc1min      Qc1max      Qc2min      Qc2max      ramp_agc    ramp_10     ramp_30     ramp_q      apf         
	 5	 195.3	 0	 158	-158	 1	 241.92	 1	 315	 75.6	 0	 0	 0	 0	 0	 0	 0	 0	 0	 0	 201.6;
	 20	 74.35	 0	 51	-51	 1	 37.8	 1	 102	 46.7	 0	 0	 0	 0	 0	 0	 0	 0	 0	 0	 31.5;
	 21	 30.125	 0	 23	-23	 1	 11.52	 1	 46	 14.25	 0	 0	 0	 0	 0	 0	 0	 0	 0	 0	 9.6;
	 22	 50.87	 15.55	 75.1	-44	 1	 79.2	 1	 88	 13.74	 0	 0	 0	 0	 0	 0	 0	 0	 0	 0	 66;
	 25	 201.5	 0	 164	-164	 1	 240	 1	 328	 75	 0	 0	 0	 0	 0	 0	 0	 0	 0	 0	 200;
	 34	 0	 0	 615	-615	 1	 211.6	 0	 1229	 26.45	 0	 0	 0	 0	 0	 0	 0	 0	 0	 0	 176.33;
	 35	 168.225	 0	 155	-155	 1	 211.6	 1	 310	 26.45	 0	 0	 0	 0	 0	 0	 0	 0	 0	 0	 176.33;
	 36	 228.225	 0	 215	-215	 1	 211.6	 1	 430	 26.45	 0	 0	 0	 0	 0	 0	 0	 0	 0	 0	 176.33;
	 41	 0	 0	 13	-13	 1	 1.68	 0	 26	 0.21	 0	 0	 0	 0	 0	 0	 0	 0	 0	 0	 1.4;
	 42	 21.2625	 0	 20	-20	 1	 28.2	 1	 39	 3.525	 0	 0	 0	 0	 0	 0	 0	 0	 0	 0	 23.5;
	 43	 0	 0	 45	-45	 1	 9.12	 0	 89	 1.14	 0	 0	 0	 0	 0	 0	 0	 0	 0	 0	 7.6;
	 44	 57.6	 0	 56	-56	 1	 33.6	 1	 111	 4.2	 0	 0	 0	 0	 0	 0	 0	 0	 0	 0	 28;
	 45	 28.1	 0	 26	-26	 1	 33.6	 1	 52	 4.2	 0	 0	 0	 0	 0	 0	 0	 0	 0	 0	 28;
	 46	 47.1	 0	 45	-45	 1	 33.6	 1	 90	 4.2	 0	 0	 0	 0	 0	 0	 0	 0	 0	 0	 28;
	 47	 0	 0	 13.05	-12	 1	 33.6	 0	 24	 4.2	 0	 0	 0	 0	 0	 0	 0	 0	 0	 0	 28;
	 48	 21.1	 0	 19	-19	 1	 33.6	 1	 38	 4.2	 0	 0	 0	 0	 0	 0	 0	 0	 0	 0	 28;
	 49	 0	 0	 300	-300	 1	 33.6	 0	 600	 4.2	 0	 0	 0	 0	 0	 0	 0	 0	 0	 0	 28;
	 65	 150.25	 0	 115	-115	 1	 225.6	 1	 230	 70.5	 0	 0	 0	 0	 0	 0	 0	 0	 0	 0	 188;
	 70	 288.6	 0	 236	-236	 1	 339.84	 1	 471	 106.2	 0	 0	 0	 0	 0	 0	 0	 0	 0	 0	 283.2;
	 76	 212.1875	 0	 175	-175	 1	 241.2	 1	 349	 75.375	 0	 0	 0	 0	 0	 0	 0	 0	 0	 0	 201;
	 79	 401.0625	 0	 363	-363	 1	 243.6	 1	 726	 76.125	 0	 0	 0	 0	 0	 0	 0	 0	 0	 0	 203;
	 84	 121.625	 0	 116	-116	 1	 90	 1	 232	 11.25	 0	 0	 0	 0	 0	 0	 0	 0	 0	 0	 75;
	 84	 191.2825	 0	 178	-178	 1	 220.52	 1	 355	 27.565	 0	 0	 0	 0	 0	 0	 0	 0	 0	 0	 183.77;
	 84	 0	 0	 63	-63	 1	 28.8	 0	 125	 3.6	 0	 0	 0	 0	 0	 0	 0	 0	 0	 0	 24;
	 84	 110.575	 0	 106	-106	 1	 73.2	 1	 212	 9.15	 0	 0	 0	 0	 0	 0	 0	 0	 0	 0	 61;
	 84	 92.78	 0	 92	-92	 1	 12.48	 1	 184	 1.56	 0	 0	 0	 0	 0	 0	 0	 0	 0	 0	 10.4;
	 84	 221.525	 0	 202	-202	 1	 320.4	 1	 403	 40.05	 0	 0	 0	 0	 0	 0	 0	 0	 0	 0	 267;
	 84	 127.525	 13.95	 135.9	-108	 1	 320.4	 1	 215	 40.05	 0	 0	 0	 0	 0	 0	 0	 0	 0	 0	 267;
	 84	 148.025	 3.95	 135.9	-128	 1	 320.4	 1	 256	 40.05	 0	 0	 0	 0	 0	 0	 0	 0	 0	 0	 267;
	 84	 230.7825	 0	 217	-217	 1	 220.52	 1	 434	 27.565	 0	 0	 0	 0	 0	 0	 0	 0	 0	 0	 183.77;
	 84	 352.7825	 0	 339	-339	 1	 220.52	 1	 678	 27.565	 0	 0	 0	 0	 0	 0	 0	 0	 0	 0	 183.77;
	 86	 215.3	 0	 178	-178	 1	 241.92	 1	 355	 75.6	 0	 0	 0	 0	 0	 0	 0	 0	 0	 0	 201.6;
];

mpc_regionR2.branch = [
%	fbus        tbus        r           x           b           rateA       rateB       rateC       ratio       angle       status      angmin      angmax      
	 1	 15	 0.01209	 0.07809	 0.0149	 250	 250	 250	 0	 0	 1	-30	 30;
	 51	 1	 0.00838	 0.05414	 0.01033	 221	 221	 221	 0	 0	 1	-30	 30;
	 51	 1	 0.00838	 0.05414	 0.01033	 221	 221	 221	 0	 0	 1	-30	 30;
	 62	 1	 0.01296	 0.09028	 0.01476	 221	 221	 221	 0	 0	 1	-30	 30;
	 2	 6	 0.0269	 0.11766	 0.01792	 149	 149	 149	 0	 0	 1	-30	 30;
	 2	 88	 0.00624	 0.04344	 0.0071	 221	 221	 221	 0	 0	 1	-30	 30;
	 3	 11	 0.00348	 0.02089	 0.00284	 221	 221	 221	 0	 0	 1	-30	 30;
	 3	 13	 0.00873	 0.03892	 0.00571	 149	 149	 149	 0	 0	 1	-30	 30;
	 3	 59	 0.00469	 0.02091	 0.00307	 221	 221	 221	 0	 0	 1	-30	 30;
	 5	 4	 0.00242	 0.06944	 0	 131	 131	 131	 1	 0	 1	-30	 30;
	 5	 4	 0.00315	 0.06944	 0	 131	 131	 131	 1	 0	 1	-30	 30;
	 69	 4	 0.00542	 0.03498	 0.00667	 221	 221	 221	 0	 0	 1	-30	 30;
	 69	 4	 0.00542	 0.03498	 0.00667	 221	 221	 221	 0	 0	 1	-30	 30;
	 75	 4	 0.00315	 0.02032	 0.00388	 221	 221	 221	 0	 0	 1	-30	 30;
	 75	 4	 0.00315	 0.02032	 0.00388	 221	 221	 221	 0	 0	 1	-30	 30;
	 6	 81	 0.03112	 0.13615	 0.02073	 149	 149	 149	 0	 0	 1	-30	 30;
	 13	 7	 0.01625	 0.09759	 0.01324	 221	 221	 221	 0	 0	 1	-30	 30;
	 7	 51	 0.02485	 0.14192	 0.02133	 221	 221	 221	 0	 0	 1	-30	 30;
	 7	 58	 0.01296	 0.07781	 0.01056	 98	 98	 98	 0	 0	 1	-30	 30;
	 7	 78	 0.02502	 0.11152	 0.01635	 221	 221	 221	 0	 0	 1	-30	 30;
	 8	 40	 0.01437	 0.09281	 0.01771	 250	 250	 250	 0	 0	 1	-30	 30;
	 53	 8	 0.02623	 0.06413	 0.0084	 98	 98	 98	 0	 0	 1	-30	 30;
	 8	 59	 0.00312	 0.01784	 0.00268	 98	 98	 98	 0	 0	 1	-30	 30;
	 9	 28	 0.00919	 0.06276	 0.01068	 221	 221	 221	 0	 0	 1	-30	 30;
	 9	 28	 0.00919	 0.06276	 0.01068	 221	 221	 221	 0	 0	 1	-30	 30;
	 9	 58	 0.02026	 0.04952	 0.00648	 98	 98	 98	 0	 0	 1	-30	 30;
	 40	 10	 0.01219	 0.05329	 0.00812	 149	 149	 149	 0	 0	 1	-30	 30;
	 10	 77	 0.00965	 0.04299	 0.0063	 149	 149	 149	 0	 0	 1	-30	 30;
	 11	 39	 0.00276	 0.01883	 0.0032	 221	 221	 221	 0	 0	 1	-30	 30;
	 11	 39	 0.00276	 0.01883	 0.0032	 221	 221	 221	 0	 0	 1	-30	 30;
	 12	 18	 0.04121	 0.18028	 0.02746	 149	 149	 149	 0	 0	 1	-30	 30;
	 67	 12	 0.02053	 0.0898	 0.01368	 149	 149	 149	 0	 0	 1	-30	 30;
	 13	 71	 0.01506	 0.10289	 0.01751	 221	 221	 221	 0	 0	 1	-30	 30;
	 15	 14	 0.00078	 0.02871	 0	 384	 384	 384	 1	 0	 1	-30	 30;
	 15	 14	 0.00078	 0.02871	 0	 384	 384	 384	 1	 0	 1	-30	 30;
	 32	 14	 0.00022	 0.00224	 0.00764	 750	 750	 750	 0	 0	 1	-30	 30;
	 32	 14	 0.00022	 0.00224	 0.00764	 750	 750	 750	 0	 0	 1	-30	 30;
	 14	 68	 0.00765	 0.07956	 0.27111	 750	 750	 750	 0	 0	 1	-30	 30;
	 14	 68	 0.00765	 0.07956	 0.27111	 750	 750	 750	 0	 0	 1	-30	 30;
	 14	 68	 0.00765	 0.07956	 0.27111	 750	 750	 750	 0	 0	 1	-30	 30;
	 33	 15	 0.00148	 0.00957	 0.00183	 250	 250	 250	 0	 0	 1	-30	 30;
	 33	 15	 0.00148	 0.00957	 0.00183	 250	 250	 250	 0	 0	 1	-30	 30;
	 33	 15	 0.00148	 0.00957	 0.00183	 250	 250	 250	 0	 0	 1	-30	 30;
	 37	 15	 0.00457	 0.03186	 0.00521	 300	 300	 300	 0	 0	 1	-30	 30;
	 37	 15	 0.00457	 0.03186	 0.00521	 300	 300	 300	 0	 0	 1	-30	 30;
	 37	 15	 0.00457	 0.03186	 0.00521	 300	 300	 300	 0	 0	 1	-30	 30;
	 17	 16	 0.00056	 0.03546	 0	 442	 442	 442	 1	 0	 1	-30	 30;
	 17	 16	 0.00056	 0.03546	 0	 442	 442	 442	 1	 0	 1	-30	 30;
	 17	 16	 0.00056	 0.03546	 0	 442	 442	 442	 1	 0	 1	-30	 30;
	 32	 16	 0.0019	 0.01971	 0.06717	 820	 820	 820	 0	 0	 1	-30	 30;
	 32	 16	 0.0019	 0.01971	 0.06717	 820	 820	 820	 0	 0	 1	-30	 30;
	 39	 17	 0.00312	 0.02015	 0.00384	 250	 250	 250	 0	 0	 1	-30	 30;
	 39	 17	 0.00312	 0.02015	 0.00384	 250	 250	 250	 0	 0	 1	-30	 30;
	 53	 17	 0.00298	 0.01925	 0.00367	 221	 221	 221	 0	 0	 1	-30	 30;
	 53	 17	 0.00298	 0.01925	 0.00367	 221	 221	 221	 0	 0	 1	-30	 30;
	 18	 57	 0.01218	 0.05428	 0.00796	 149	 149	 149	 0	 0	 1	-30	 30;
	 20	 19	 0.00353	 0.16159	 0	 120	 120	 120	 1	 0	 1	-30	 30;
	 21	 19	 0.00669	 0.2458	 0	 40	 40	 40	 1	 0	 1	-30	 30;
	 22	 19	 0.00557	 0.09157	 0	 250	 250	 250	 1	 0	 1	-30	 30;
	 19	 57	 0.00264	 0.01804	 0.00307	 221	 221	 221	 0	 0	 1	-30	 30;
	 81	 19	 0.03117	 0.13891	 0.02037	 149	 149	 149	 0	 0	 1	-30	 30;
	 23	 71	 0.00408	 0.02784	 0.00474	 221	 221	 221	 0	 0	 1	-30	 30;
	 23	 72	 0.00335	 0.02332	 0.00381	 221	 221	 221	 0	 0	 1	-30	 30;
	 23	 72	 0.00335	 0.02332	 0.00381	 221	 221	 221	 0	 0	 1	-30	 30;
	 25	 24	 0.00389	 0.07962	 0	 130	 130	 130	 1	 0	 1	-30	 30;
	 25	 24	 0.00389	 0.07962	 0	 130	 130	 130	 1	 0	 1	-30	 30;
	 38	 24	 0.00927	 0.04053	 0.00617	 149	 149	 149	 0	 0	 1	-30	 30;
	 24	 86	 0.00379	 0.02643	 0.00432	 221	 221	 221	 0	 0	 1	-30	 30;
	 24	 86	 0.00379	 0.02643	 0.00432	 221	 221	 221	 0	 0	 1	-30	 30;
	 26	 69	 0.0091	 0.06213	 0.01057	 221	 221	 221	 0	 0	 1	-30	 30;
	 26	 69	 0.0091	 0.06213	 0.01057	 221	 221	 221	 0	 0	 1	-30	 30;
	 26	 83	 0.02289	 0.14783	 0.0282	 221	 221	 221	 0	 0	 1	-30	 30;
	 26	 83	 0.02289	 0.14783	 0.0282	 221	 221	 221	 0	 0	 1	-30	 30;
	 27	 29	 0.013	 0.05797	 0.0085	 149	 149	 149	 0	 0	 1	-30	 30;
	 27	 53	 0.00316	 0.02043	 0.0039	 221	 221	 221	 0	 0	 1	-30	 30;
	 27	 53	 0.00316	 0.02043	 0.0039	 221	 221	 221	 0	 0	 1	-30	 30;
	 55	 28	 0.00346	 0.02362	 0.00402	 300	 300	 300	 0	 0	 1	-30	 30;
	 86	 28	 0.00473	 0.03294	 0.00539	 300	 300	 300	 0	 0	 1	-30	 30;
	 86	 28	 0.00473	 0.03294	 0.00539	 300	 300	 300	 0	 0	 1	-30	 30;
	 86	 28	 0.00473	 0.03294	 0.00539	 300	 300	 300	 0	 0	 1	-30	 30;
	 29	 51	 0.00973	 0.05555	 0.00835	 98	 98	 98	 0	 0	 1	-30	 30;
	 29	 82	 0.01855	 0.08268	 0.01212	 149	 149	 149	 0	 0	 1	-30	 30;
	 31	 30	 0.00121	 0.04292	 0	 353	 353	 353	 1	 0	 1	-30	 30;
	 31	 30	 0.00121	 0.04292	 0	 353	 353	 353	 1	 0	 1	-30	 30;
	 30	 79	 0.002	 0.02	 0.07	 443	 443	 443	 0	 0	 1	-30	 30;
	 30	 84	 0.00137	 0.01421	 0.04843	 750	 750	 750	 0	 0	 1	-30	 30;
	 30	 84	 0.00137	 0.01421	 0.04843	 750	 750	 750	 0	 0	 1	-30	 30;
	 52	 31	 0.009	 0.0401	 0.00588	 221	 221	 221	 0	 0	 1	-30	 30;
	 33	 32	 0.00046	 0.01717	 0	 397	 397	 397	 1	 0	 1	-30	 30;
	 33	 32	 0.00046	 0.01717	 0	 397	 397	 397	 1	 0	 1	-30	 30;
	 34	 32	 0.0015	 0.06318	 0	 220	 220	 220	 1	 0	 1	-30	 30;
	 35	 32	 0.0015	 0.05994	 0	 220	 220	 220	 1	 0	 1	-30	 30;
	 36	 32	 0.00135	 0.06817	 0	 220	 220	 220	 1	 0	 1	-30	 30;
	 66	 32	 0.006	 0.06	 0.115	 548	 548	 548	 0	 0	 1	-30	 30;
	 32	 79	 0.01015	 0.07248	 0.13214	 750	 750	 750	 0	 0	 1	-30	 30;
	 84	 32	 0.0062	 0.06449	 0.21975	 820	 820	 820	 0	 0	 1	-30	 30;
	 72	 33	 0.01013	 0.05786	 0.00869	 221	 221	 221	 0	 0	 1	-30	 30;
	 37	 73	 0.00338	 0.02308	 0.00393	 250	 250	 250	 0	 0	 1	-30	 30;
	 37	 73	 0.00338	 0.02308	 0.00393	 250	 250	 250	 0	 0	 1	-30	 30;
	 38	 52	 0.02192	 0.09592	 0.01461	 149	 149	 149	 0	 0	 1	-30	 30;
	 54	 38	 0.01641	 0.07179	 0.01093	 149	 149	 149	 0	 0	 1	-30	 30;
	 41	 40	 0.01451	 0.58764	 0	 28	 28	 28	 1	 0	 1	-30	 30;
	 42	 40	 0.00427	 0.20036	 0	 37	 37	 37	 1	 0	 1	-30	 30;
	 43	 40	 0.0034	 0.12539	 0	 48	 48	 48	 1	 0	 1	-30	 30;
	 44	 40	 0.01405	 0.24296	 0	 40	 40	 40	 1	 0	 1	-30	 30;
	 45	 40	 0.00238	 0.09215	 0	 40	 40	 40	 1	 0	 1	-30	 30;
	 46	 40	 0.0077	 0.18665	 0	 40	 40	 40	 1	 0	 1	-30	 30;
	 47	 40	 0.01248	 0.29442	 0	 40	 40	 40	 1	 0	 1	-30	 30;
	 48	 40	 0.00925	 0.21151	 0	 40	 40	 40	 1	 0	 1	-30	 30;
	 49	 40	 0.01041	 0.22475	 0	 40	 40	 40	 1	 0	 1	-30	 30;
	 40	 86	 0.01637	 0.06793	 0.01153	 149	 149	 149	 0	 0	 1	-30	 30;
	 61	 50	 0.00411	 0.02652	 0.00506	 300	 300	 300	 0	 0	 1	-30	 30;
	 61	 50	 0.00411	 0.02652	 0.00506	 300	 300	 300	 0	 0	 1	-30	 30;
	 50	 78	 0.00634	 0.04334	 0.00737	 250	 250	 250	 0	 0	 1	-30	 30;
	 50	 78	 0.00634	 0.04334	 0.00737	 250	 250	 250	 0	 0	 1	-30	 30;
	 54	 78	 0.02886	 0.11974	 0.02032	 149	 149	 149	 0	 0	 1	-30	 30;
	 82	 55	 0.00861	 0.0384	 0.00563	 221	 221	 221	 0	 0	 1	-30	 30;
	 60	 56	 0.01932	 0.13196	 0.02245	 221	 221	 221	 0	 0	 1	-30	 30;
	 60	 56	 0.01932	 0.13196	 0.02245	 221	 221	 221	 0	 0	 1	-30	 30;
	 56	 64	 0.0066	 0.04599	 0.00752	 221	 221	 221	 0	 0	 1	-30	 30;
	 56	 64	 0.0066	 0.04599	 0.00752	 221	 221	 221	 0	 0	 1	-30	 30;
	 74	 57	 0.02453	 0.1676	 0.02851	 221	 221	 221	 0	 0	 1	-30	 30;
	 59	 73	 0.00313	 0.02183	 0.00357	 221	 221	 221	 0	 0	 1	-30	 30;
	 59	 73	 0.00313	 0.02183	 0.00357	 221	 221	 221	 0	 0	 1	-30	 30;
	 62	 60	 0.02044	 0.13201	 0.02518	 221	 221	 221	 0	 0	 1	-30	 30;
	 62	 60	 0.02044	 0.13201	 0.02518	 221	 221	 221	 0	 0	 1	-30	 30;
	 85	 61	 0.00522	 0.0364	 0.00595	 250	 250	 250	 0	 0	 1	-30	 30;
	 85	 61	 0.00522	 0.0364	 0.00595	 250	 250	 250	 0	 0	 1	-30	 30;
	 85	 61	 0.00522	 0.0364	 0.00595	 250	 250	 250	 0	 0	 1	-30	 30;
	 64	 63	 0.00072	 0.03223	 0	 428	 428	 428	 1	 0	 1	-30	 30;
...